<?xml version="1.0" encoding="UTF-8"?>

<!-- generated on 2023-02-13 19:00:49 by Eclipse SUMO netconvert Version 1.15.0
<configuration xmlns:xsi="http://www.w3.org/2001/XMLSchema-instance" xsi:noNamespaceSchemaLocation="http://sumo.dlr.de/xsd/netconvertConfiguration.xsd">

    <input>
        <sumo-net-file value="lust.net.xml"/>
    </input>

    <output>
        <plain-output-prefix value="true"/>
    </output>

    <processing>
        <geometry.min-radius.fix.railways value="false"/>
        <geometry.max-grade.fix value="false"/>
        <offset.disable-normalization value="true"/>
        <lefthand value="0"/>
    </processing>

    <junctions>
        <no-turnarounds value="true"/>
        <junctions.corner-detail value="0"/>
        <junctions.limit-turn-speed value="-1.00"/>
        <rectangular-lane-cut value="0"/>
    </junctions>

    <pedestrian>
        <walkingareas value="0"/>
    </pedestrian>

</configuration>
-->

<tlLogics version="1.9" xmlns:xsi="http://www.w3.org/2001/XMLSchema-instance" xsi:noNamespaceSchemaLocation="http://sumo.dlr.de/xsd/tllogic_file.xsd">
    <tlLogic id="-10130" type="actuated" programID="0" offset="0">
        <phase duration="30" state="GGGGgrrrGGGGgrrr"/>
        <phase duration="4"  state="yyyygrrryyyygrrr"/>
        <phase duration="10" state="rrrrGrrrrrrrGrrr"/>
        <phase duration="4"  state="rrrryrrrrrrryrrr"/>
        <phase duration="30" state="rrrrrGGgrrrrrGGg"/>
        <phase duration="4"  state="rrrrryygrrrrryyg"/>
        <phase duration="10" state="rrrrrrrGrrrrrrrG"/>
        <phase duration="4"  state="rrrrrrryrrrrrrry"/>
    </tlLogic>
    <tlLogic id="-10156" type="actuated" programID="0" offset="0">
        <phase duration="30" state="GGgrrGGG"/>
        <phase duration="4"  state="yygrryyy"/>
        <phase duration="10" state="rrGrrrrr"/>
        <phase duration="4"  state="rryrrrrr"/>
        <phase duration="30" state="rrrGGGrr"/>
        <phase duration="4"  state="rrryyyrr"/>
    </tlLogic>
    <tlLogic id="-10160" type="actuated" programID="0" offset="0">
        <phase duration="30" state="GGGggrrrGGGG"/>
        <phase duration="4"  state="yyyggrrryyyy"/>
        <phase duration="10" state="rrrGGrrrrrrr"/>
        <phase duration="4"  state="rrryyrrrrrrr"/>
        <phase duration="30" state="rrrrrGGGGrrr"/>
        <phase duration="4"  state="rrrrryyyyrrr"/>
    </tlLogic>
    <tlLogic id="-10258" type="actuated" programID="0" offset="0">
        <phase duration="30" state="rrrGGGgrrrGGGg"/>
        <phase duration="4"  state="rrryyygrrryyyg"/>
        <phase duration="10" state="rrrrrrGrrrrrrG"/>
        <phase duration="4"  state="rrrrrryrrrrrry"/>
        <phase duration="30" state="GGgrrrrGGgrrrr"/>
        <phase duration="4"  state="yygrrrryygrrrr"/>
        <phase duration="10" state="rrGrrrrrrGrrrr"/>
        <phase duration="4"  state="rryrrrrrryrrrr"/>
    </tlLogic>
    <tlLogic id="-10438" type="actuated" programID="0" offset="0">
        <phase duration="30" state="GGGGrrrrGGGg"/>
        <phase duration="4"  state="yyyyrrrryyyg"/>
        <phase duration="10" state="rrrrrrrrrrrG"/>
        <phase duration="4"  state="rrrrrrrrrrry"/>
        <phase duration="30" state="rrrrGGGGrrrr"/>
        <phase duration="4"  state="rrrryyyyrrrr"/>
    </tlLogic>
    <tlLogic id="-10518" type="actuated" programID="0" offset="0">
        <phase duration="30" state="GGGgrrrGGGG"/>
        <phase duration="4"  state="yyygrrryyyy"/>
        <phase duration="10" state="rrrGrrrrrrr"/>
        <phase duration="4"  state="rrryrrrrrrr"/>
        <phase duration="30" state="rrrrGGGGrrr"/>
        <phase duration="4"  state="rrrryyyyrrr"/>
    </tlLogic>
    <tlLogic id="-10588" type="actuated" programID="0" offset="0">
        <phase duration="30" state="rrrrrrGGgrrrGGgg"/>
        <phase duration="4"  state="rrrrrryygrrryygg"/>
        <phase duration="10" state="rrrrrrrrGrrrrrGG"/>
        <phase duration="4"  state="rrrrrrrryrrrrryy"/>
        <phase duration="30" state="rrrGGgrrrGGgrrrr"/>
        <phase duration="4"  state="rrryygrrryygrrrr"/>
        <phase duration="10" state="rrrrrGrrrrrGrrrr"/>
        <phase duration="4"  state="rrrrryrrrrryrrrr"/>
        <phase duration="30" state="GGGGrrrrrrrrrrrr"/>
        <phase duration="4"  state="yyyyrrrrrrrrrrrr"/>
    </tlLogic>
    <tlLogic id="-10780" type="actuated" programID="0" offset="0">
        <phase duration="30" state="GGgrrGGG"/>
        <phase duration="4"  state="yygrryyy"/>
        <phase duration="10" state="rrGrrrrr"/>
        <phase duration="4"  state="rryrrrrr"/>
        <phase duration="30" state="rrrGGGrr"/>
        <phase duration="4"  state="rrryyyrr"/>
    </tlLogic>
    <tlLogic id="-10820" type="actuated" programID="0" offset="0">
        <phase duration="30" state="GGGgrrrGGGG"/>
        <phase duration="4"  state="yyygrrryyyy"/>
        <phase duration="10" state="rrrGrrrrrrr"/>
        <phase duration="4"  state="rrryrrrrrrr"/>
        <phase duration="30" state="rrrrGGGGrrr"/>
        <phase duration="4"  state="rrrryyyyrrr"/>
    </tlLogic>
    <tlLogic id="-1086" type="actuated" programID="0" offset="0">
        <phase duration="30" state="GGGgrrrGGGG"/>
        <phase duration="4"  state="yyygrrryyyy"/>
        <phase duration="10" state="rrrGrrrrrrr"/>
        <phase duration="4"  state="rrryrrrrrrr"/>
        <phase duration="30" state="rrrrGGGGrrr"/>
        <phase duration="4"  state="rrrryyyyrrr"/>
    </tlLogic>
    <tlLogic id="-11042" type="actuated" programID="0" offset="0">
        <phase duration="30" state="GGGgrrrGGGgrrr"/>
        <phase duration="4"  state="yyygrrryyygrrr"/>
        <phase duration="10" state="rrrGrrrrrrGrrr"/>
        <phase duration="4"  state="rrryrrrrrryrrr"/>
        <phase duration="30" state="rrrrGGgrrrrGGg"/>
        <phase duration="4"  state="rrrryygrrrryyg"/>
        <phase duration="10" state="rrrrrrGrrrrrrG"/>
        <phase duration="4"  state="rrrrrryrrrrrry"/>
    </tlLogic>
    <tlLogic id="-11144" type="actuated" programID="0" offset="0">
        <phase duration="30" state="rrrGGGGgrrrGGGGg"/>
        <phase duration="4"  state="rrryyyygrrryyyyg"/>
        <phase duration="10" state="rrrrrrrGrrrrrrrG"/>
        <phase duration="4"  state="rrrrrrryrrrrrrry"/>
        <phase duration="30" state="GGgrrrrrGGgrrrrr"/>
        <phase duration="4"  state="yygrrrrryygrrrrr"/>
        <phase duration="10" state="rrGrrrrrrrGrrrrr"/>
        <phase duration="4"  state="rryrrrrrrryrrrrr"/>
    </tlLogic>
    <tlLogic id="-11222" type="actuated" programID="0" offset="0">
        <phase duration="30" state="rrrGGGGgrrrGGGGg"/>
        <phase duration="4"  state="rrryyyygrrryyyyg"/>
        <phase duration="10" state="rrrrrrrGrrrrrrrG"/>
        <phase duration="4"  state="rrrrrrryrrrrrrry"/>
        <phase duration="30" state="GGgGrrrrGGgGrrrr"/>
        <phase duration="4"  state="yygyrrrryygyrrrr"/>
        <phase duration="10" state="rrGrrrrrrrGrrrrr"/>
        <phase duration="4"  state="rryrrrrrrryrrrrr"/>
    </tlLogic>
    <tlLogic id="-11328" type="actuated" programID="0" offset="0">
        <phase duration="30" state="GGGgrrrGGGG"/>
        <phase duration="4"  state="yyygrrryyyy"/>
        <phase duration="10" state="rrrGrrrrrrr"/>
        <phase duration="4"  state="rrryrrrrrrr"/>
        <phase duration="30" state="rrrrGGGGrrr"/>
        <phase duration="4"  state="rrrryyyyrrr"/>
    </tlLogic>
    <tlLogic id="-11514" type="actuated" programID="0" offset="0">
        <phase duration="30" state="rrGGGGGg"/>
        <phase duration="4"  state="rryyyyyg"/>
        <phase duration="10" state="rrrrrrrG"/>
        <phase duration="4"  state="rrrrrrry"/>
        <phase duration="30" state="GGGrrrrr"/>
        <phase duration="4"  state="yyyrrrrr"/>
    </tlLogic>
    <tlLogic id="-11552" type="actuated" programID="0" offset="0">
        <phase duration="30" state="GGGGGgrrrGGGGGgrrr"/>
        <phase duration="4"  state="yyyyygrrryyyyygrrr"/>
        <phase duration="10" state="rrrrrGrrrrrrrrGrrr"/>
        <phase duration="4"  state="rrrrryrrrrrrrryrrr"/>
        <phase duration="30" state="rrrrrrGGgrrrrrrGGg"/>
        <phase duration="4"  state="rrrrrryygrrrrrryyg"/>
        <phase duration="10" state="rrrrrrrrGrrrrrrrrG"/>
        <phase duration="4"  state="rrrrrrrryrrrrrrrry"/>
    </tlLogic>
    <tlLogic id="-11632" type="actuated" programID="0" offset="0">
        <phase duration="30" state="GGGGgrrrGGGGgrrr"/>
        <phase duration="4"  state="yyyygrrryyyygrrr"/>
        <phase duration="10" state="rrrrGrrrrrrrGrrr"/>
        <phase duration="4"  state="rrrryrrrrrrryrrr"/>
        <phase duration="30" state="rrrrrGGgGrrrrGGg"/>
        <phase duration="4"  state="rrrrryygyrrrryyg"/>
        <phase duration="10" state="rrrrrrrGrrrrrrrG"/>
        <phase duration="4"  state="rrrrrrryrrrrrrry"/>
    </tlLogic>
    <tlLogic id="-11754" type="actuated" programID="0" offset="0">
        <phase duration="30" state="GGGgrrrGGGgrrr"/>
        <phase duration="4"  state="yyygrrryyygrrr"/>
        <phase duration="10" state="rrrGrrrrrrGrrr"/>
        <phase duration="4"  state="rrryrrrrrryrrr"/>
        <phase duration="30" state="rrrrGGgrrrrGGg"/>
        <phase duration="4"  state="rrrryygrrrryyg"/>
        <phase duration="10" state="rrrrrrGrrrrrrG"/>
        <phase duration="4"  state="rrrrrryrrrrrry"/>
    </tlLogic>
    <tlLogic id="-12" type="actuated" programID="0" offset="0">
        <phase duration="30" state="GGGGGGGgrrr"/>
        <phase duration="4"  state="yyyyyyygrrr"/>
        <phase duration="10" state="rrrrrrrGrrr"/>
        <phase duration="4"  state="rrrrrrryrrr"/>
        <phase duration="30" state="GrrrrrrrGGG"/>
        <phase duration="4"  state="yrrrrrrryyy"/>
    </tlLogic>
    <tlLogic id="-12064" type="actuated" programID="0" offset="0">
        <phase duration="30" state="GGGggrrrGGGG"/>
        <phase duration="4"  state="yyyggrrryyyy"/>
        <phase duration="10" state="rrrGGrrrrrrr"/>
        <phase duration="4"  state="rrryyrrrrrrr"/>
        <phase duration="30" state="rrrrrGGGGrrr"/>
        <phase duration="4"  state="rrrrryyyyrrr"/>
    </tlLogic>
    <tlLogic id="-12084" type="actuated" programID="0" offset="0">
        <phase duration="30" state="GGGgrrrGGGG"/>
        <phase duration="4"  state="yyygrrryyyy"/>
        <phase duration="10" state="rrrGrrrrrrr"/>
        <phase duration="4"  state="rrryrrrrrrr"/>
        <phase duration="30" state="rrrrGGGGrrr"/>
        <phase duration="4"  state="rrrryyyyrrr"/>
    </tlLogic>
    <tlLogic id="-12112" type="actuated" programID="0" offset="0">
        <phase duration="30" state="GGGGGGGr"/>
        <phase duration="4"  state="yyyyyyyr"/>
        <phase duration="30" state="rrrrGGGG"/>
        <phase duration="4"  state="rrrryyyy"/>
    </tlLogic>
    <tlLogic id="-12408" type="actuated" programID="0" offset="0">
        <phase duration="30" state="rrrGGGGgrrrGGGGg"/>
        <phase duration="4"  state="rrryyyygrrryyyyg"/>
        <phase duration="10" state="rrrrrrrGrrrrrrrG"/>
        <phase duration="4"  state="rrrrrrryrrrrrrry"/>
        <phase duration="30" state="GGgGrrrrGGgGrrrr"/>
        <phase duration="4"  state="yygyrrrryygyrrrr"/>
        <phase duration="10" state="rrGrrrrrrrGrrrrr"/>
        <phase duration="4"  state="rryrrrrrrryrrrrr"/>
    </tlLogic>
    <tlLogic id="-12582" type="actuated" programID="0" offset="0">
        <phase duration="30" state="GGGgrrrGGGG"/>
        <phase duration="4"  state="yyygrrryyyy"/>
        <phase duration="10" state="rrrGrrrrrrr"/>
        <phase duration="4"  state="rrryrrrrrrr"/>
        <phase duration="30" state="rrrrGGGGrrr"/>
        <phase duration="4"  state="rrrryyyyrrr"/>
    </tlLogic>
    <tlLogic id="-12678" type="actuated" programID="0" offset="0">
        <phase duration="30" state="GGGGGr"/>
        <phase duration="4"  state="yyyyyr"/>
        <phase duration="30" state="rrrGGG"/>
        <phase duration="4"  state="rrryyy"/>
    </tlLogic>
    <tlLogic id="-12800" type="actuated" programID="0" offset="0">
        <phase duration="30" state="GgGGGrrr"/>
        <phase duration="4"  state="ygyyyrrr"/>
        <phase duration="10" state="rGrrrrrr"/>
        <phase duration="4"  state="ryrrrrrr"/>
        <phase duration="30" state="GrrrrGGG"/>
        <phase duration="4"  state="yrrrryyy"/>
    </tlLogic>
    <tlLogic id="-13232" type="actuated" programID="0" offset="0">
        <phase duration="30" state="GGgrrGGG"/>
        <phase duration="4"  state="yygrryyy"/>
        <phase duration="10" state="rrGrrrrr"/>
        <phase duration="4"  state="rryrrrrr"/>
        <phase duration="30" state="rrrGGGrr"/>
        <phase duration="4"  state="rrryyyrr"/>
    </tlLogic>
    <tlLogic id="-1332" type="actuated" programID="0" offset="0">
        <phase duration="30" state="GgrrGGrrr"/>
        <phase duration="4"  state="ygrryyrrr"/>
        <phase duration="10" state="rGrrrrrrr"/>
        <phase duration="4"  state="ryrrrrrrr"/>
        <phase duration="30" state="rrggrrGGG"/>
        <phase duration="4"  state="rrggrryyy"/>
        <phase duration="10" state="rrGGrrrrr"/>
        <phase duration="4"  state="rryyrrrrr"/>
    </tlLogic>
    <tlLogic id="-13478" type="actuated" programID="0" offset="0">
        <phase duration="30" state="rrrGGgrrGGG"/>
        <phase duration="4"  state="rrryygrryyy"/>
        <phase duration="10" state="rrrrrGrrrrr"/>
        <phase duration="4"  state="rrrrryrrrrr"/>
        <phase duration="30" state="GGgrrrGgrrr"/>
        <phase duration="4"  state="yygrrrygrrr"/>
        <phase duration="10" state="rrGrrrrGrrr"/>
        <phase duration="4"  state="rryrrrryrrr"/>
    </tlLogic>
    <tlLogic id="-13602" type="actuated" programID="0" offset="0">
        <phase duration="30" state="rrrGGGGgrrrGGGGg"/>
        <phase duration="4"  state="rrryyyygrrryyyyg"/>
        <phase duration="10" state="rrrrrrrGrrrrrrrG"/>
        <phase duration="4"  state="rrrrrrryrrrrrrry"/>
        <phase duration="30" state="GGgrrrrrGGgrrrrr"/>
        <phase duration="4"  state="yygrrrrryygrrrrr"/>
        <phase duration="10" state="rrGrrrrrrrGrrrrr"/>
        <phase duration="4"  state="rryrrrrrrryrrrrr"/>
    </tlLogic>
    <tlLogic id="-13608" type="actuated" programID="0" offset="0">
        <phase duration="30" state="GGgrrGGG"/>
        <phase duration="4"  state="yygrryyy"/>
        <phase duration="10" state="rrGrrrrr"/>
        <phase duration="4"  state="rryrrrrr"/>
        <phase duration="30" state="rrrGGGrr"/>
        <phase duration="4"  state="rrryyyrr"/>
    </tlLogic>
    <tlLogic id="-13628" type="actuated" programID="0" offset="0">
        <phase duration="30" state="rrrGGGGGGGg"/>
        <phase duration="4"  state="rrryyyyyyyg"/>
        <phase duration="10" state="rrrrrrrrrrG"/>
        <phase duration="4"  state="rrrrrrrrrry"/>
        <phase duration="30" state="GGGGrrrrrrr"/>
        <phase duration="4"  state="yyyyrrrrrrr"/>
    </tlLogic>
    <tlLogic id="-13722" type="actuated" programID="0" offset="0">
        <phase duration="30" state="rrrGGGGGGg"/>
        <phase duration="4"  state="rrryyyyyyg"/>
        <phase duration="10" state="rrrrrrrrrG"/>
        <phase duration="4"  state="rrrrrrrrry"/>
        <phase duration="30" state="GGGGrrrrrr"/>
        <phase duration="4"  state="yyyyrrrrrr"/>
    </tlLogic>
    <tlLogic id="-13968" type="actuated" programID="0" offset="0">
        <phase duration="30" state="rrrGGGgrrrGGGg"/>
        <phase duration="4"  state="rrryyygrrryyyg"/>
        <phase duration="10" state="rrrrrrGrrrrrrG"/>
        <phase duration="4"  state="rrrrrryrrrrrry"/>
        <phase duration="30" state="GGgrrrrGGgrrrr"/>
        <phase duration="4"  state="yygrrrryygrrrr"/>
        <phase duration="10" state="rrGrrrrrrGrrrr"/>
        <phase duration="4"  state="rryrrrrrryrrrr"/>
    </tlLogic>
    <tlLogic id="-14092" type="actuated" programID="0" offset="0">
        <phase duration="30" state="GGGGgrrrGGGGgrrr"/>
        <phase duration="4"  state="yyyygrrryyyygrrr"/>
        <phase duration="10" state="rrrrGrrrrrrrGrrr"/>
        <phase duration="4"  state="rrrryrrrrrrryrrr"/>
        <phase duration="30" state="rrrrrGGgrrrrrGGg"/>
        <phase duration="4"  state="rrrrryygrrrrryyg"/>
        <phase duration="10" state="rrrrrrrGrrrrrrrG"/>
        <phase duration="4"  state="rrrrrrryrrrrrrry"/>
    </tlLogic>
    <tlLogic id="-14148" type="actuated" programID="0" offset="0">
        <phase duration="30" state="GGGGGGGgrrr"/>
        <phase duration="4"  state="yyyyyyygrrr"/>
        <phase duration="10" state="rrrrrrrGrrr"/>
        <phase duration="4"  state="rrrrrrryrrr"/>
        <phase duration="30" state="GrrrrrrrGGG"/>
        <phase duration="4"  state="yrrrrrrryyy"/>
    </tlLogic>
    <tlLogic id="-14384" type="actuated" programID="0" offset="0">
        <phase duration="30" state="GGGgrrrGGGgrrr"/>
        <phase duration="4"  state="yyygrrryyygrrr"/>
        <phase duration="10" state="rrrGrrrrrrGrrr"/>
        <phase duration="4"  state="rrryrrrrrryrrr"/>
        <phase duration="30" state="rrrrGGgrrrrGGg"/>
        <phase duration="4"  state="rrrryygrrrryyg"/>
        <phase duration="10" state="rrrrrrGrrrrrrG"/>
        <phase duration="4"  state="rrrrrryrrrrrry"/>
    </tlLogic>
    <tlLogic id="-1458" type="actuated" programID="0" offset="0">
        <phase duration="30" state="GGGgrrrGGGG"/>
        <phase duration="4"  state="yyygrrryyyy"/>
        <phase duration="10" state="rrrGrrrrrrr"/>
        <phase duration="4"  state="rrryrrrrrrr"/>
        <phase duration="30" state="rrrrGGGGrrr"/>
        <phase duration="4"  state="rrrryyyyrrr"/>
    </tlLogic>
    <tlLogic id="-14718" type="actuated" programID="0" offset="0">
        <phase duration="30" state="GGGgrrrGGGG"/>
        <phase duration="4"  state="yyygrrryyyy"/>
        <phase duration="10" state="rrrGrrrrrrr"/>
        <phase duration="4"  state="rrryrrrrrrr"/>
        <phase duration="30" state="rrrrGGGGrrr"/>
        <phase duration="4"  state="rrrryyyyrrr"/>
    </tlLogic>
    <tlLogic id="-14740" type="actuated" programID="0" offset="0">
        <phase duration="30" state="GGGGGgrr"/>
        <phase duration="4"  state="yyyyygrr"/>
        <phase duration="10" state="rrrrrGrr"/>
        <phase duration="4"  state="rrrrryrr"/>
        <phase duration="30" state="GrrrrrGG"/>
        <phase duration="4"  state="yrrrrryy"/>
    </tlLogic>
    <tlLogic id="-14976" type="actuated" programID="0" offset="0">
        <phase duration="30" state="GGGgrrrGGGG"/>
        <phase duration="4"  state="yyygrrryyyy"/>
        <phase duration="10" state="rrrGrrrrrrr"/>
        <phase duration="4"  state="rrryrrrrrrr"/>
        <phase duration="30" state="rrrrGGGGrrr"/>
        <phase duration="4"  state="rrrryyyyrrr"/>
    </tlLogic>
    <tlLogic id="-15010" type="actuated" programID="0" offset="0">
        <phase duration="30" state="GGGGGggrrr"/>
        <phase duration="4"  state="yyyyyggrrr"/>
        <phase duration="10" state="rrrrrGGrrr"/>
        <phase duration="4"  state="rrrrryyrrr"/>
        <phase duration="30" state="GrrrGrrGGG"/>
        <phase duration="4"  state="yrrryrryyy"/>
    </tlLogic>
    <tlLogic id="-1536" type="actuated" programID="0" offset="0">
        <phase duration="30" state="GGGGGGGgrrr"/>
        <phase duration="4"  state="yyyyyyygrrr"/>
        <phase duration="10" state="rrrrrrrGrrr"/>
        <phase duration="4"  state="rrrrrrryrrr"/>
        <phase duration="30" state="GrrrrrrrGGG"/>
        <phase duration="4"  state="yrrrrrrryyy"/>
    </tlLogic>
    <tlLogic id="-1542" type="actuated" programID="0" offset="0">
        <phase duration="30" state="GGGGGGgGrr"/>
        <phase duration="4"  state="yyyyyyyyrr"/>
        <phase duration="30" state="GrrrrrrGGG"/>
        <phase duration="4"  state="yrrrrrryyy"/>
    </tlLogic>
    <tlLogic id="-15812" type="actuated" programID="0" offset="0">
        <phase duration="30" state="GGGGGgrrrGGGGGgrrr"/>
        <phase duration="4"  state="yyyyygrrryyyyygrrr"/>
        <phase duration="10" state="rrrrrGrrrrrrrrGrrr"/>
        <phase duration="4"  state="rrrrryrrrrrrrryrrr"/>
        <phase duration="30" state="rrrrrrGGgrrrrrrGGg"/>
        <phase duration="4"  state="rrrrrryygrrrrrryyg"/>
        <phase duration="10" state="rrrrrrrrGrrrrrrrrG"/>
        <phase duration="4"  state="rrrrrrrryrrrrrrrry"/>
    </tlLogic>
    <tlLogic id="-15890" type="actuated" programID="0" offset="0">
        <phase duration="30" state="GGGGGGGggrrr"/>
        <phase duration="4"  state="yyyyyyyggrrr"/>
        <phase duration="10" state="rrrrrrrGGrrr"/>
        <phase duration="4"  state="rrrrrrryyrrr"/>
        <phase duration="30" state="GrrrrrrrrGGG"/>
        <phase duration="4"  state="yrrrrrrrryyy"/>
    </tlLogic>
    <tlLogic id="-15912" type="actuated" programID="0" offset="0">
        <phase duration="30" state="GGGgrrrGGGgrrr"/>
        <phase duration="4"  state="yyygrrryyygrrr"/>
        <phase duration="10" state="rrrGrrrrrrGrrr"/>
        <phase duration="4"  state="rrryrrrrrryrrr"/>
        <phase duration="30" state="rrrrGGgrrrrGGg"/>
        <phase duration="4"  state="rrrryygrrrryyg"/>
        <phase duration="10" state="rrrrrrGrrrrrrG"/>
        <phase duration="4"  state="rrrrrryrrrrrry"/>
    </tlLogic>
    <tlLogic id="-15920" type="actuated" programID="0" offset="0">
        <phase duration="30" state="GGgrrrGGGgrrr"/>
        <phase duration="4"  state="yygrrryyygrrr"/>
        <phase duration="10" state="rrGrrrrrrGrrr"/>
        <phase duration="4"  state="rryrrrrrryrrr"/>
        <phase duration="30" state="rrrGGgrrrrGGg"/>
        <phase duration="4"  state="rrryygrrrryyg"/>
        <phase duration="10" state="rrrrrGrrrrrrG"/>
        <phase duration="4"  state="rrrrryrrrrrry"/>
    </tlLogic>
    <tlLogic id="-160" type="actuated" programID="0" offset="0">
        <phase duration="30" state="rrGGGGGg"/>
        <phase duration="4"  state="rryyyyyg"/>
        <phase duration="10" state="rrrrrrrG"/>
        <phase duration="4"  state="rrrrrrry"/>
        <phase duration="30" state="GGGrrrrr"/>
        <phase duration="4"  state="yyyrrrrr"/>
    </tlLogic>
    <tlLogic id="-16078" type="actuated" programID="0" offset="0">
        <phase duration="30" state="rrrGGGGGGGg"/>
        <phase duration="4"  state="rrryyyyyyyg"/>
        <phase duration="10" state="rrrrrrrrrrG"/>
        <phase duration="4"  state="rrrrrrrrrry"/>
        <phase duration="30" state="GGGGrrrrrrr"/>
        <phase duration="4"  state="yyyyrrrrrrr"/>
    </tlLogic>
    <tlLogic id="-16128" type="actuated" programID="0" offset="0">
        <phase duration="30" state="GGGGgrrrGGGGgrrr"/>
        <phase duration="4"  state="yyyygrrryyyygrrr"/>
        <phase duration="10" state="rrrrGrrrrrrrGrrr"/>
        <phase duration="4"  state="rrrryrrrrrrryrrr"/>
        <phase duration="30" state="rrrrrGGgrrrrrGGg"/>
        <phase duration="4"  state="rrrrryygrrrrryyg"/>
        <phase duration="10" state="rrrrrrrGrrrrrrrG"/>
        <phase duration="4"  state="rrrrrrryrrrrrrry"/>
    </tlLogic>
    <tlLogic id="-16136" type="actuated" programID="0" offset="0">
        <phase duration="30" state="GGGrrrGGG"/>
        <phase duration="4"  state="yyyrrryyy"/>
        <phase duration="30" state="rrrGGGrrr"/>
        <phase duration="4"  state="rrryyyrrr"/>
    </tlLogic>
    <tlLogic id="-16238" type="actuated" programID="0" offset="0">
        <phase duration="30" state="GGGgGrrGGG"/>
        <phase duration="4"  state="yyygyrryyy"/>
        <phase duration="10" state="rrrGrrrrrr"/>
        <phase duration="4"  state="rrryrrrrrr"/>
        <phase duration="30" state="rrrrGGGGrr"/>
        <phase duration="4"  state="rrrryyyyrr"/>
    </tlLogic>
    <tlLogic id="-16312" type="actuated" programID="0" offset="0">
        <phase duration="30" state="GGgrrGGG"/>
        <phase duration="4"  state="yygrryyy"/>
        <phase duration="10" state="rrGrrrrr"/>
        <phase duration="4"  state="rryrrrrr"/>
        <phase duration="30" state="rrrGGGrr"/>
        <phase duration="4"  state="rrryyyrr"/>
    </tlLogic>
    <tlLogic id="-1644" type="actuated" programID="0" offset="0">
        <phase duration="30" state="GGGgrrrGGGG"/>
        <phase duration="4"  state="yyygrrryyyy"/>
        <phase duration="10" state="rrrGrrrrrrr"/>
        <phase duration="4"  state="rrryrrrrrrr"/>
        <phase duration="30" state="rrrrGGGGrrr"/>
        <phase duration="4"  state="rrrryyyyrrr"/>
    </tlLogic>
    <tlLogic id="-16448" type="actuated" programID="0" offset="0">
        <phase duration="30" state="rrrGGGGGGGg"/>
        <phase duration="4"  state="rrryyyyyyyg"/>
        <phase duration="10" state="rrrrrrrrrrG"/>
        <phase duration="4"  state="rrrrrrrrrry"/>
        <phase duration="30" state="GGGGrrrrrrr"/>
        <phase duration="4"  state="yyyyrrrrrrr"/>
    </tlLogic>
    <tlLogic id="-16502" type="actuated" programID="0" offset="0">
        <phase duration="30" state="GGGG"/>
        <phase duration="4"  state="yyyy"/>
    </tlLogic>
    <tlLogic id="-16558" type="actuated" programID="0" offset="0">
        <phase duration="30" state="GGGGGGGggrrr"/>
        <phase duration="4"  state="yyyyyyyggrrr"/>
        <phase duration="10" state="rrrrrrrGGrrr"/>
        <phase duration="4"  state="rrrrrrryyrrr"/>
        <phase duration="30" state="GrrrrrrrrGGG"/>
        <phase duration="4"  state="yrrrrrrrryyy"/>
    </tlLogic>
    <tlLogic id="-16730" type="actuated" programID="0" offset="0">
        <phase duration="30" state="GGGGgrrrGGGGgrrr"/>
        <phase duration="4"  state="yyyygrrryyyygrrr"/>
        <phase duration="10" state="rrrrGrrrrrrrGrrr"/>
        <phase duration="4"  state="rrrryrrrrrrryrrr"/>
        <phase duration="30" state="rrrrrGGgrrrrrGGg"/>
        <phase duration="4"  state="rrrrryygrrrrryyg"/>
        <phase duration="10" state="rrrrrrrGrrrrrrrG"/>
        <phase duration="4"  state="rrrrrrryrrrrrrry"/>
    </tlLogic>
    <tlLogic id="-16816" type="actuated" programID="0" offset="0">
        <phase duration="30" state="rrrGGGGGGGg"/>
        <phase duration="4"  state="rrryyyyyyyg"/>
        <phase duration="10" state="rrrrrrrrrrG"/>
        <phase duration="4"  state="rrrrrrrrrry"/>
        <phase duration="30" state="GGGGrrrrrrr"/>
        <phase duration="4"  state="yyyyrrrrrrr"/>
    </tlLogic>
    <tlLogic id="-16852" type="actuated" programID="0" offset="0">
        <phase duration="30" state="GGGGGGGgrrr"/>
        <phase duration="4"  state="yyyyyyygrrr"/>
        <phase duration="10" state="rrrrrrrGrrr"/>
        <phase duration="4"  state="rrrrrrryrrr"/>
        <phase duration="30" state="GrrrrrrrGGG"/>
        <phase duration="4"  state="yrrrrrrryyy"/>
    </tlLogic>
    <tlLogic id="-16864" type="actuated" programID="0" offset="0">
        <phase duration="30" state="rrrGGGGGGg"/>
        <phase duration="4"  state="rrryyyyyyg"/>
        <phase duration="10" state="rrrrrrrrrG"/>
        <phase duration="4"  state="rrrrrrrrry"/>
        <phase duration="30" state="GGGGrrrrrr"/>
        <phase duration="4"  state="yyyyrrrrrr"/>
    </tlLogic>
    <tlLogic id="-16936" type="actuated" programID="0" offset="0">
        <phase duration="30" state="rrrGGGgrrrGGGg"/>
        <phase duration="4"  state="rrryyygrrryyyg"/>
        <phase duration="10" state="rrrrrrGrrrrrrG"/>
        <phase duration="4"  state="rrrrrryrrrrrry"/>
        <phase duration="30" state="GGgrrrrGGgrrrr"/>
        <phase duration="4"  state="yygrrrryygrrrr"/>
        <phase duration="10" state="rrGrrrrrrGrrrr"/>
        <phase duration="4"  state="rryrrrrrryrrrr"/>
    </tlLogic>
    <tlLogic id="-16944" type="actuated" programID="0" offset="0">
        <phase duration="30" state="rrrGGGgrrrGGGg"/>
        <phase duration="4"  state="rrryyygrrryyyg"/>
        <phase duration="10" state="rrrrrrGrrrrrrG"/>
        <phase duration="4"  state="rrrrrryrrrrrry"/>
        <phase duration="30" state="GGgrrrrGGgrrrr"/>
        <phase duration="4"  state="yygrrrryygrrrr"/>
        <phase duration="10" state="rrGrrrrrrGrrrr"/>
        <phase duration="4"  state="rryrrrrrryrrrr"/>
    </tlLogic>
    <tlLogic id="-17046" type="actuated" programID="0" offset="0">
        <phase duration="30" state="GGGGGgrr"/>
        <phase duration="4"  state="yyyyygrr"/>
        <phase duration="10" state="rrrrrGrr"/>
        <phase duration="4"  state="rrrrryrr"/>
        <phase duration="30" state="GrrrrrGG"/>
        <phase duration="4"  state="yrrrrryy"/>
    </tlLogic>
    <tlLogic id="-17072" type="actuated" programID="0" offset="0">
        <phase duration="30" state="rrrGGGGGGGg"/>
        <phase duration="4"  state="rrryyyyyyyg"/>
        <phase duration="10" state="rrrrrrrrrrG"/>
        <phase duration="4"  state="rrrrrrrrrry"/>
        <phase duration="30" state="GGGGrrrrrrr"/>
        <phase duration="4"  state="yyyyrrrrrrr"/>
    </tlLogic>
    <tlLogic id="-17158" type="actuated" programID="0" offset="0">
        <phase duration="30" state="GGgrrGGG"/>
        <phase duration="4"  state="yygrryyy"/>
        <phase duration="10" state="rrGrrrrr"/>
        <phase duration="4"  state="rryrrrrr"/>
        <phase duration="30" state="rrrGGGrr"/>
        <phase duration="4"  state="rrryyyrr"/>
    </tlLogic>
    <tlLogic id="-17268" type="actuated" programID="0" offset="0">
        <phase duration="30" state="GGGGrrrrGGGg"/>
        <phase duration="4"  state="yyyyrrrryyyg"/>
        <phase duration="10" state="rrrrrrrrrrrG"/>
        <phase duration="4"  state="rrrrrrrrrrry"/>
        <phase duration="30" state="rrrrGGGGrrrr"/>
        <phase duration="4"  state="rrrryyyyrrrr"/>
    </tlLogic>
    <tlLogic id="-17348" type="actuated" programID="0" offset="0">
        <phase duration="30" state="GGGGGgrr"/>
        <phase duration="4"  state="yyyyygrr"/>
        <phase duration="10" state="rrrrrGrr"/>