<?xml version="1.0" encoding="UTF-8"?>

<!-- generated on 2023-02-13 19:00:48 by Eclipse SUMO netconvert Version 1.15.0
<configuration xmlns:xsi="http://www.w3.org/2001/XMLSchema-instance" xsi:noNamespaceSchemaLocation="http://sumo.dlr.de/xsd/netconvertConfiguration.xsd">

    <input>
        <sumo-net-file value="lust.net.xml"/>
    </input>

    <output>
        <plain-output-prefix value="true"/>
    </output>

    <processing>
        <geometry.min-radius.fix.railways value="false"/>
        <geometry.max-grade.fix value="false"/>
        <offset.disable-normalization value="true"/>
        <lefthand value="0"/>
    </processing>

    <junctions>
        <no-turnarounds value="true"/>
        <junctions.corner-detail value="0"/>
        <junctions.limit-turn-speed value="-1.00"/>
        <rectangular-lane-cut value="0"/>
    </junctions>

    <pedestrian>
        <walkingareas value="0"/>
    </pedestrian>

</configuration>
-->

<connections version="1.9" xmlns:xsi="http://www.w3.org/2001/XMLSchema-instance" xsi:noNamespaceSchemaLocation="http://sumo.dlr.de/xsd/connections_file.xsd">
    <connection from="--30244#0" to="-31070#3" fromLane="0" toLane="0"/>
    <connection from="--30244#0" to="-32078" fromLane="1" toLane="0"/>
    <connection from="--30244#0" to="--31070#2" fromLane="1" toLane="1"/>

    <connection from="--30244#1" to="--30244#0" fromLane="0" toLane="0"/>
    <connection from="--30244#1" to="--30244#0" fromLane="1" toLane="1"/>
    <connection from="--30244#1" to="-30676#0" fromLane="1" toLane="0"/>

    <connection from="--30244#2" to="--30244#1" fromLane="0" toLane="0"/>
    <connection from="--30244#2" to="--30244#1" fromLane="1" toLane="1"/>
    <connection from="--30244#2" to="--30478#2" fromLane="1" toLane="0"/>

    <connection from="--30244#3" to="--30244#2" fromLane="0" toLane="0"/>
    <connection from="--30244#3" to="--30244#2" fromLane="1" toLane="1"/>
    <connection from="--30244#3" to="-31090" fromLane="1" toLane="0"/>

    <connection from="--30244#4" to="--30244#3" fromLane="0" toLane="0"/>
    <connection from="--30244#4" to="--30244#3" fromLane="1" toLane="1"/>
    <connection from="--30244#4" to="-31862#0" fromLane="1" toLane="0"/>

    <connection from="--30246"/>

    <connection from="--30248" to="--31924#1" fromLane="0" toLane="0"/>
    <connection from="--30248" to="--32588" fromLane="0" toLane="0"/>
    <connection from="--30248" to="-30518" fromLane="0" toLane="0"/>

    <connection from="--30250" to="--32034#0" fromLane="0" toLane="0"/>
    <connection from="--30250" to="-32034#1" fromLane="0" toLane="0"/>

    <connection from="--30252" to="--31048#8" fromLane="0" toLane="0"/>
    <connection from="--30252" to="-31048#9" fromLane="0" toLane="0"/>

    <connection from="--30254#0"/>

    <connection from="--30254#1" to="--30254#0" fromLane="0" toLane="0"/>
    <connection from="--30254#1" to="--31472" fromLane="0" toLane="0"/>

    <connection from="--30256#0" to="--31834#2" fromLane="0" toLane="0"/>
    <connection from="--30256#0" to="--31834#2" fromLane="1" toLane="1"/>
    <connection from="--30256#0" to="--31834#2" fromLane="2" toLane="2"/>
    <connection from="--30256#0" to="-30724#0" fromLane="2" toLane="1"/>

    <connection from="--30256#1" to="--31812" fromLane="0" toLane="0"/>
    <connection from="--30256#1" to="--30256#0" fromLane="0" toLane="0"/>
    <connection from="--30256#1" to="--30256#0" fromLane="1" toLane="1"/>
    <connection from="--30256#1" to="--30256#0" fromLane="2" toLane="2"/>
    <connection from="--30256#1" to="--31952#18" fromLane="2" toLane="2"/>

    <connection from="--30256#2" to="--32274" fromLane="0" toLane="0"/>
    <connection from="--30256#2" to="--30256#1" fromLane="0" toLane="0"/>
    <connection from="--30256#2" to="--30256#1" fromLane="1" toLane="1"/>
    <connection from="--30256#2" to="--30256#1" fromLane="2" toLane="2"/>

    <connection from="--30256#3" to="--30256#2" fromLane="0" toLane="0"/>
    <connection from="--30256#3" to="--30256#2" fromLane="1" toLane="1"/>
    <connection from="--30256#3" to="--30256#2" fromLane="2" toLane="2"/>
    <connection from="--30256#3" to="--32406#4" fromLane="2" toLane="0"/>

    <connection from="--30258" to="-30766#10" fromLane="0" toLane="0"/>
    <connection from="--30258" to="--30766#9" fromLane="0" toLane="0"/>

    <connection from="--30260" to="--31938" fromLane="0" toLane="0"/>
    <connection from="--30260" to="--31938" fromLane="1" toLane="1"/>

    <connection from="--30262#0" to="--32924#12" fromLane="0" toLane="0"/>
    <connection from="--30262#0" to="-32924#13" fromLane="0" toLane="1"/>
    <connection from="--30262#0" to="-32924#13" fromLane="0" toLane="2"/>

    <connection from="--30262#1" to="-32028#1" fromLane="0" toLane="0"/>
    <connection from="--30262#1" to="--30262#0" fromLane="0" toLane="0"/>
    <connection from="--30262#1" to="--32028#0" fromLane="0" toLane="0"/>

    <connection from="--30262#2" to="-30418#1" fromLane="0" toLane="0"/>
    <connection from="--30262#2" to="--30262#1" fromLane="0" toLane="0"/>
    <connection from="--30262#2" to="--30418#0" fromLane="0" toLane="0"/>

    <connection from="--30264#0" to="-32272" fromLane="0" toLane="0"/>
    <connection from="--30264#0" to="--30264#1" fromLane="0" toLane="0"/>

    <connection from="--30264#1" to="--30264#0" fromLane="0" toLane="0"/>

    <connection from="--30266" to="--32230#6" fromLane="0" toLane="0"/>
    <connection from="--30266" to="-32230#7" fromLane="0" toLane="1"/>

    <connection from="--30270#0"/>

    <connection from="--30270#1" to="-31798" fromLane="0" toLane="0"/>
    <connection from="--30270#1" to="--30270#0" fromLane="0" toLane="0"/>

    <connection from="--30272" to="-32094#2" fromLane="0" toLane="0"/>
    <connection from="--30272" to="--32094#1" fromLane="0" toLane="0"/>

    <connection from="--30274" to="-32352#2" fromLane="0" toLane="0"/>

    <connection from="--30278" to="-31540#1" fromLane="0" toLane="0"/>
    <connection from="--30278" to="--31540#0" fromLane="1" toLane="1"/>

    <connection from="--30280" to="--31724#1" fromLane="0" toLane="0"/>
    <connection from="--30280" to="-31724#2" fromLane="0" toLane="0"/>

    <connection from="--30282" to="--30404#1" fromLane="0" toLane="0"/>
    <connection from="--30282" to="-30404#2" fromLane="0" toLane="1"/>

    <connection from="--30284#0"/>

    <connection from="--30286#0"/>

    <connection from="--30286#1" to="--30286#0" fromLane="0" toLane="0"/>
    <connection from="--30286#1" to="-32800#0" fromLane="0" toLane="0"/>

    <connection from="--30286#2" to="--30286#1" fromLane="0" toLane="0"/>
    <connection from="--30286#2" to="--31732" fromLane="0" toLane="0"/>

    <connection from="--30286#3" to="--30584" fromLane="0" toLane="0"/>
    <connection from="--30286#3" to="--30286#2" fromLane="0" toLane="0"/>

    <connection from="--30286#4" to="--30286#3" fromLane="0" toLane="0"/>
    <connection from="--30286#4" to="-31732" fromLane="0" toLane="0"/>

    <connection from="--30288#0" to="--31944#4" fromLane="0" toLane="0"/>
    <connection from="--30288#0" to="-31944#5" fromLane="0" toLane="0"/>

    <connection from="--30288#1" to="--30288#0" fromLane="0" toLane="0"/>
    <connection from="--30288#1" to="-32188" fromLane="0" toLane="0"/>

    <connection from="--30290" to="-30756#1" fromLane="0" toLane="0"/>
    <connection from="--30290" to="--30756#0" fromLane="0" toLane="0"/>

    <connection from="--30294#0" to="-31872#1" fromLane="0" toLane="0"/>
    <connection from="--30294#0" to="--31872#0" fromLane="0" toLane="0"/>

    <connection from="--30294#1" to="-32146#1" fromLane="0" toLane="0"/>
    <connection from="--30294#1" to="--30294#0" fromLane="0" toLane="0"/>
    <connection from="--30294#1" to="--32146#0" fromLane="0" toLane="0"/>

    <connection from="--30296"/>

    <connection from="--30304#0" to="--31368#2" fromLane="0" toLane="0"/>
    <connection from="--30304#0" to="-31368#3" fromLane="0" toLane="0"/>

    <connection from="--30304#1" to="--30304#0" fromLane="0" toLane="0"/>
    <connection from="--30304#1" to="-31484" fromLane="0" toLane="0"/>

    <connection from="--30304#2" to="--30304#1" fromLane="0" toLane="0"/>
    <connection from="--30304#2" to="-31438" fromLane="0" toLane="0"/>

    <connection from="--30306#0"/>

    <connection from="--30306#1" to="--30306#0" fromLane="0" toLane="0"/>
    <connection from="--30306#1" to="--32884" fromLane="0" toLane="0"/>

    <connection from="--30306#2" to="--30306#1" fromLane="0" toLane="0"/>
    <connection from="--30306#2" to="--30592#6" fromLane="0" toLane="0"/>

    <connection from="--30306#3" to="--31086" fromLane="0" toLane="0"/>
    <connection from="--30306#3" to="--30306#2" fromLane="0" toLane="0"/>

    <connection from="--30306#4" to="-31086" fromLane="0" toLane="0"/>
    <connection from="--30306#4" to="--30306#3" fromLane="0" toLane="0"/>

    <connection from="--30306#5" to="-32936#0" fromLane="0" toLane="0"/>
    <connection from="--30306#5" to="--30306#4" fromLane="0" toLane="0"/>

    <connection from="--30306#6" to="--30306#5" fromLane="0" toLane="0"/>
    <connection from="--30306#6" to="-30416#0" fromLane="0" toLane="0"/>

    <connection from="--30314#0" to="-32414#1" fromLane="0" toLane="0"/>
    <connection from="--30314#0" to="-32414#1" fromLane="1" toLane="1"/>
    <connection from="--30314#0" to="-32414#1" fromLane="2" toLane="2"/>

    <connection from="--30314#1" to="-30358#0" fromLane="0" toLane="0"/>
    <connection from="--30314#1" to="--30314#0" fromLane="0" toLane="0"/>
    <connection from="--30314#1" to="--30314#0" fromLane="1" toLane="1"/>
    <connection from="--30314#1" to="--30314#0" fromLane="2" toLane="2"/>

    <connection from="--30316" to="--31496#0" fromLane="0" toLane="0"/>
    <connection from="--30316" to="--31676#2" fromLane="0" toLane="0"/>
    <connection from="--30316" to="-31496#1" fromLane="0" toLane="2"/>

    <connection from="--30318" to="-30906#1" fromLane="0" toLane="0"/>

    <connection from="--30320" to="-31120" fromLane="0" toLane="0"/>

    <connection from="--30328#0" to="--30526" fromLane="0" toLane="0"/>
    <connection from="--30328#0" to="-30538#1" fromLane="0" toLane="0"/>

    <connection from="--30328#1" to="--30328#0" fromLane="0" toLane="0"/>
    <connection from="--30328#1" to="--31934" fromLane="0" toLane="0"/>

    <connection from="--30328#2" to="-30760" fromLane="0" toLane="0"/>
    <connection from="--30328#2" to="--30328#1" fromLane="0" toLane="0"/>

    <connection from="--30328#3" to="--30328#2" fromLane="0" toLane="0"/>

    <connection from="--30330" to="-30656#1" fromLane="0" toLane="0"/>

    <connection from="--30334#0" to="-30648#11" fromLane="0" toLane="0"/>
    <connection from="--30334#0" to="--30648#10" fromLane="0" toLane="1"/>
    <connection from="--30334#0" to="--30648#10" fromLane="0" toLane="2"/>

    <connection from="--30334#1" to="-30826" fromLane="0" toLane="0"/>
    <connection from="--30334#1" to="--30334#0" fromLane="0" toLane="0"/>

    <connection from="--30334#2" to="--30334#1" fromLane="0" toLane="0"/>
    <connection from="--30334#2" to="-32244" fromLane="0" toLane="0"/>

    <connection from="--30336#0" to="-31162#1" fromLane="0" toLane="0"/>
    <connection from="--30336#0" to="-31162#1" fromLane="1" toLane="1"/>
    <connection from="--30336#0" to="-31162#1" fromLane="2" toLane="2"/>

    <connection from="--30336#1" to="--30358#18" fromLane="0" toLane="0"/>
    <connection from="--30336#1" to="--30336#0" fromLane="0" toLane="0"/>
    <connection from="--30336#1" to="--30336#0" fromLane="1" toLane="1"/>
    <connection from="--30336#1" to="--30336#0" fromLane="2" toLane="2"/>

    <connection from="--30336#2" to="-30502#0" fromLane="0" toLane="0"/>
    <connection from="--30336#2" to="--30336#1" fromLane="0" toLane="0"/>
    <connection from="--30336#2" to="--30336#1" fromLane="1" toLane="1"/>
    <connection from="--30336#2" to="--30336#1" fromLane="2" toLane="2"/>

    <connection from="--30344" to="--31946#2" fromLane="0" toLane="0"/>
    <connection from="--30344" to="-30628#2" fromLane="0" toLane="0"/>

    <connection from="--30346#0" to="--30892#24" fromLane="0" toLane="0"/>
    <connection from="--30346#0" to="-30892#25" fromLane="0" toLane="1"/>
    <connection from="--30346#0" to="-30892#25" fromLane="0" toLane="2"/>

    <connection from="--30346#1" to="-30968#3" fromLane="0" toLane="0"/>
    <connection from="--30346#1" to="--30346#0" fromLane="0" toLane="0"/>
    <connection from="--30346#1" to="--30968#2" fromLane="0" toLane="0"/>

    <connection from="--30348#0" to="--30892#23" fromLane="0" toLane="0"/>
    <connection from="--30348#0" to="-30892#24" fromLane="1" toLane="1"/>
    <connection from="--30348#0" to="-30892#24" fromLane="1" toLane="2"/>

    <connection from="--30348#1" to="--32358" fromLane="0" toLane="0"/>
    <connection from="--30348#1" to="--30348#0" fromLane="0" toLane="0"/>
    <connection from="--30348#1" to="--30348#0" fromLane="1" toLane="1"/>

    <connection from="--30348#2" to="--30348#1" fromLane="0" toLane="0"/>
    <connection from="--30348#2" to="--30348#1" fromLane="1" toLane="1"/>
    <connection from="--30348#2" to="--30968#3" fromLane="1" toLane="0"/>

    <connection from="--30348#3" to="--32618#5" fromLane="0" toLane="0"/>
    <connection from="--30348#3" to="--30348#2" fromLane="0" toLane="0"/>
    <connection from="--30348#3" to="--30348#2" fromLane="1" toLane="1"/>

    <connection from="--30348#4" to="--30348#3" fromLane="0" toLane="0"/>
    <connection from="--30348#4" to="--30348#3" fromLane="1" toLane="1"/>
    <connection from="--30348#4" to="-31948#0" fromLane="1" toLane="0"/>

    <connection from="--30348#5" to="--32474#1" fromLane="0" toLane="0"/>
    <connection from="--30348#5" to="--30348#4" fromLane="0" toLane="0"/>
    <connection from="--30348#5" to="--30348#4" fromLane="1" toLane="1"/>
    <connection from="--30348#5" to="-32560" fromLane="1" toLane="0"/>

    <connection from="--30350" to="-32906#2" fromLane="0" toLane="0"/>
    <connection from="--30350" to="--32906#1" fromLane="0" toLane="0"/>

    <connection from="--30352" to="-32172#3" fromLane="0" toLane="0"/>
    <connection from="--30352" to="--32172#2" fromLane="0" toLane="0"/>

    <connection from="--30354" to="--31966#10" fromLane="0" toLane="0"/>
    <connection from="--30354" to="--32716#2" fromLane="0" toLane="0"/>
    <connection from="--30354" to="-31966#11" fromLane="0" toLane="1"/>

    <connection from="--30358#0" to="--30314#0" fromLane="0" toLane="0"/>
    <connection from="--30358#0" to="-30314#1" fromLane="1" toLane="1"/>
    <connection from="--30358#0" to="-30314#1" fromLane="1" toLane="2"/>

    <connection from="--30358#1" to="--30454#1" fromLane="0" toLane="0"/>
    <connection from="--30358#1" to="--30358#0" fromLane="0" toLane="0"/>
    <connection from="--30358#1" to="--30358#0" fromLane="1" toLane="1"/>

    <connection from="--30358#10" to="-31326#0" fromLane="0" toLane="0"/>
    <connection from="--30358#10" to="--30358#9" fromLane="0" toLane="0"/>
    <connection from="--30358#10" to="--30358#9" fromLane="1" toLane="1"/>

    <connection from="--30358#11" to="--30358#10" fromLane="0" toLane="0"/>
    <connection from="--30358#11" to="--30358#10" fromLane="1" toLane="1"/>
    <connection from="--30358#11" to="--30306#6" fromLane="1" toLane="0"/>

    <connection from="--30358#12" to="--30404#5" fromLane="0" toLane="0"/>
    <connection from="--30358#12" to="--30358#11" fromLane="1" toLane="1"/>

    <connection from="--30358#13" to="--30358#12" fromLane="0" toLane="0"/>
    <connection from="--30358#13" to="--30358#12" fromLane="1" toLane="1"/>
    <connection from="--30358#13" to="-32482#0" fromLane="1" toLane="0"/>

    <connection from="--30358#14" to="--30502#3" fromLane="0" toLane="0"/>
    <connection from="--30358#14" to="--30358#13" fromLane="0" toLane="0"/>
    <connection from="--30358#14" to="--30358#13" fromLane="1" toLane="1"/>

    <connection from="--30358#15" to="--30358#14" fromLane="0" toLane="0"/>
    <connection from="--30358#15" to="--30358#14" fromLane="1" toLane="1"/>
    <connection from="--30358#15" to="--32578" fromLane="1" toLane="0"/>

    <connection from="--30358#16" to="-32922#0" fromLane="0" toLane="0"/>
    <connection from="--30358#16" to="--30358#15" fromLane="0" toLane="0"/>
    <connection from="--30358#16" to="--30358#15" fromLane="1" toLane="1"/>

    <connection from="--30358#17" to="--30358#16" fromLane="0" toLane="0"/>
    <connection from="--30358#17" to="--30358#16" fromLane="1" toLane="1"/>
    <connection from="--30358#17" to="--31950#2" fromLane="1" toLane="0"/>

    <connection from="--30358#18" to="--32922#3" fromLane="0" toLane="0"/>
    <connection from="--30358#18" to="--30358#17" fromLane="0" toLane="0"/>
    <connection from="--30358#18" to="--30358#17" fromLane="1" toLane="1"/>

    <connection from="--30358#2" to="-32250#0" fromLane="0" toLane="0"/>
    <connection from="--30358#2" to="--30358#1" fromLane="0" toLane="0"/>
    <connection from="--30358#2" to="--30358#1" fromLane="1" toLane="1"/>

    <connection from="--30358#3" to="-32470" fromLane="0" toLane="0"/>
    <connection from="--30358#3" to="--30358#2" fromLane="0" toLane="0"/>
    <connection from="--30358#3" to="--30358#2" fromLane="1" toLane="1"/>
    <connection from="--30358#3" to="-31410" fromLane="1" toLane="0"/>

    <connection from="--30358#4" to="-31062#0" fromLane="0" toLane="0"/>
    <connection from="--30358#4" to="--30358#3" fromLane="0" toLane="0"/>
    <connection from="--30358#4" to="--30358#3" fromLane="1" toLane="1"/>

    <connection from="--30358#5" to="--30358#4" fromLane="0" toLane="0"/>
    <connection from="--30358#5" to="--30358#4" fromLane="1" toLane="1"/>
    <connection from="--30358#5" to="--31410" fromLane="1" toLane="0"/>

    <connection from="--30358#6" to="--31574#1" fromLane="0" toLane="0"/>
    <connection from="--30358#6" to="--30358#5" fromLane="0" toLane="0"/>
    <connection from="--30358#6" to="--30358#5" fromLane="1" toLane="1"/>

    <connection from="--30358#7" to="-30942#0" fromLane="0" toLane="0"/>
    <connection from="--30358#7" to="--30358#6" fromLane="0" toLane="0"/>
    <connection from="--30358#7" to="--30358#6" fromLane="1" toLane="1"/>
    <connection from="--30358#7" to="--31402#1" fromLane="1" toLane="0"/>

    <connection from="--30358#8" to="--32234#2" fromLane="0" toLane="0"/>
    <connection from="--30358#8" to="--30358#7" fromLane="0" toLane="0"/>
    <connection from="--30358#8" to="--30358#7" fromLane="1" toLane="1"/>
    <connection from="--30358#8" to="-31396" fromLane="1" toLane="0"/>

    <connection from="--30358#9" to="--30358#8" fromLane="0" toLane="0"/>
    <connection from="--30358#9" to="--30358#8" fromLane="1" toLane="1"/>
    <connection from="--30358#9" to="-32760#0" fromLane="1" toLane="0"/>

    <connection from="--30360"/>

    <connection from="--30362#0" to="--31784#3" fromLane="0" toLane="0"/>
    <connection from="--30362#0" to="-32750#0" fromLane="0" toLane="0"/>
    <connection from="--30362#0" to="-30846#0" fromLane="0" toLane="0"/>
    <connection from="--30362#0" to="-30846#0" fromLane="1" toLane="1"/>
    <connection from="--30362#0" to="--30784" fromLane="1" toLane="1"/>
    <connection from="--30362#0" to="--31496#14" fromLane="1" toLane="2"/>
    <connection from="--30362#0" to="--31962#4" fromLane="1" toLane="1"/>

    <connection from="--30362#1" to="-31784#2" fromLane="0" toLane="0"/>
    <connection from="--30362#1" to="--30362#0" fromLane="0" toLane="0"/>
    <connection from="--30362#1" to="--30362#0" fromLane="1" toLane="1"/>
    <connection from="--30362#1" to="--31784#1" fromLane="1" toLane="1"/>

    <connection from="--30364#0" to="--30398#8" fromLane="0" toLane="0"/>
    <connection from="--30364#0" to="-30398#9" fromLane="0" toLane="0"/>

    <connection from="--30364#1" to="--30364#0" fromLane="0" toLane="0"/>
    <connection from="--30364#1" to="-32462" fromLane="0" toLane="0"/>

    <connection from="--30364#2" to="--30364#1" fromLane="0" toLane="0"/>
    <connection from="--30364#2" to="--32462" fromLane="0" toLane="0"/>

    <connection from="--30368" to="-32818#1" fromLane="0" toLane="0"/>
    <connection from="--30368" to="--32818#0" fromLane="0" toLane="0"/>

    <connection from="--30370#0"/>

    <connection from="--30370#1" to="--32776#7" fromLane="0" toLane="0"/>
    <connection from="--30370#1" to="--30370#0" fromLane="0" toLane="0"/>
    <connection from="--30370#1" to="-32776#8" fromLane="0" toLane="1"/>

    <connection from="--30370#2" to="--30370#1" fromLane="0" toLane="0"/>
    <connection from="--30370#2" to="--32176#1" fromLane="0" toLane="0"/>

    <connection from="--30370#3" to="-31566" fromLane="0" toLane="0"/>
    <connection from="--30370#3" to="--30370#2" fromLane="0" toLane="0"/>

    <connection from="--30370#4" to="--30370#3" fromLane="0" toLane="0"/>
    <connection from="--30370#4" to="--31458#2" fromLane="0" toLane="0"/>

    <connection from="--30370#5" to="--31748#1" fromLane="0" toLane="0"/>
    <connection from="--30370#5" to="--30370#4" fromLane="0" toLane="0"/>
    <connection from="--30370#5" to="-31748#2" fromLane="0" toLane="0"/>

    <connection from="--30370#6" to="--30370#5" fromLane="0" toLane="0"/>
    <connection from="--30370#6" to="-30784" fromLane="0" toLane="1"/>

    <connection from="--30370#7" to="--30370#6" fromLane="0" toLane="0"/>
    <connection from="--30370#7" to="-31236" fromLane="0" toLane="0"/>

    <connection from="--30372#0" to="--32966#4" fromLane="0" toLane="0"/>
    <connection from="--30372#0" to="-32966#5" fromLane="0" toLane="0"/>

    <connection from="--30372#1" to="--30372#0" fromLane="0" toLane="0"/>
    <connection from="--30372#1" to="--32734" fromLane="0" toLane="0"/>

    <connection from="--30374" to="-32838#4" fromLane="0" toLane="0"/>
    <connection from="--30374" to="--32838#3" fromLane="0" toLane="0"/>

    <connection from="--30376" to="-31332" fromLane="0" toLane="0"/>
    <connection from="--30376" to="--31110" fromLane="0" toLane="0"/>
    <connection from="--30376" to="--31110" fromLane="1" toLane="1"/>

    <connection from="--30378#0" to="-31794#2" fromLane="0" toLane="0"/>
    <connection from="--30378#0" to="--31794#1" fromLane="0" toLane="1"/>

    <connection from="--30378#1" to="-31576#0" fromLane="0" toLane="0"/>
    <connection from="--30378#1" to="--30378#0" fromLane="0" toLane="0"/>

    <connection from="--30378#2" to="--30378#1" fromLane="0" toLane="0"/>
    <connection from="--30378#2" to="--30378#3" fromLane="0" toLane="0"/>

    <connection from="--30378#3" to="--30378#2" fromLane="0" toLane="0"/>

    <connection from="--30382" to="--32230#3" fromLane="0" toLane="0"/>
    <connection from="--30382" to="-32230#4" fromLane="0" toLane="1"/>

    <connection from="--30388#0" to="-32966#8" fromLane="0" toLane="0"/>
    <connection from="--30388#0" to="--32966#7" fromLane="0" toLane="0"/>

    <connection from="--30388#1" to="--30388#0" fromLane="0" toLane="0"/>
    <connection from="--30388#1" to="--30866" fromLane="0" toLane="0"/>

    <connection from="--30388#2" to="--30388#1" fromLane="0" toLane="0"/>
    <connection from="--30388#2" to="-30866" fromLane="0" toLane="0"/>

    <connection from="--30390" to="-32222#2" fromLane="0" toLane="0"/>
    <connection from="--30390" to="--32222#1" fromLane="0" toLane="0"/>

    <connection from="--30392#0" to="--30392#1" fromLane="0" toLane="0"/>
    <connection from="--30392#0" to="-32780" fromLane="0" toLane="0"/>

    <connection from="--30392#1" to="--30392#0" fromLane="0" toLane="0"/>
    <connection from="--30392#1" to="-32806" fromLane="0" toLane="0"/>

    <connection from="--30396#0" to="--31354#1" fromLane="0" toLane="0"/>
    <connection from="--30396#0" to="-31354#2" fromLane="0" toLane="0"/>

    <connection from="--30396#1" to="-30558" fromLane="0" toLane="0"/>
    <connection from="--30396#1" to="--30396#0" fromLane="0" toLane="0"/>

    <connection from="--30396#2" to="--30396#1" fromLane="0" toLane="0"/>
    <connection from="--30396#2" to="-31250" fromLane="0" toLane="0"/>

    <connection from="--30396#3" to="--30558" fromLane="0" toLane="0"/>
    <connection from="--30396#3" to="--30396#2" fromLane="0" toLane="0"/>

    <connection from="--30398#0" to="-32080#1" fromLane="0" toLane="0"/>
    <connection from="--30398#0" to="--32080#0" fromLane="0" toLane="0"/>

    <connection from="--30398#1" to="-30492" fromLane="0" toLane="0"/>
    <connection from="--30398#1" to="--30398#0" fromLane="0" toLane="0"/>

    <connection from="--30398#2" to="-32054#0" fromLane="0" toLane="0"/>
    <connection from="--30398#2" to="--30398#1" fromLane="0" toLane="0"/>

    <connection from="--30398#3" to="--32638#9" fromLane="0" toLane="0"/>
    <connection from="--30398#3" to="--30398#2" fromLane="0" toLane="0"/>
    <connection from="--30398#3" to="-32638#10" fromLane="0" toLane="1"/>

    <connection from="--30398#4" to="--31016#0" fromLane="0" toLane="0"/>
    <connection from="--30398#4" to="--30398#3" fromLane="0" toLane="0"/>
    <connection from="--30398#4" to="-31016#1" fromLane="0" toLane="0"/>

    <connection from="--30398#5" to="-31282" fromLane="0" toLane="0"/>
    <connection from="--30398#5" to="--30398#4" fromLane="0" toLane="0"/>

    <connection from="--30398#6" to="-31782" fromLane="0" toLane="0"/>
    <connection from="--30398#6" to="--30398#5" fromLane="0" toLane="0"/>

    <connection from="--30398#7" to="--30398#6" fromLane="0" toLane="0"/>
    <connection from="--30398#7" to="--31490" fromLane="0" toLane="0"/>

    <connection from="--30398#8" to="-32948#1" fromLane="0" toLane="0"/>
    <connection from="--30398#8" to="--30398#7" fromLane="0" toLane="0"/>
    <connection from="--30398#8" to="--32948#0" fromLane="0" toLane="0"/>

    <connection from="--30398#9" to="-30364#0" fromLane="0" toLane="0"/>
    <connection from="--30398#9" to="--30398#8" fromLane="0" toLane="0"/>

    <connection from="--30400#0"/>

    <connection from="--30400#1" to="--30400#0" fromLane="0" toLane="0"/>
    <connection from="--30400#1" to="--31848#2" fromLane="0" toLane="0"/>

    <connection from="--30402" to="-31022#1" fromLane="0" toLane="0"/>
    <connection from="--30402" to="--31022#0" fromLane="0" toLane="0"/>

    <connection from="--30404#0" to="-30888#3" fromLane="0" toLane="0"/>
    <connection from="--30404#0" to="-30888#3" fromLane="1" toLane="1"/>

    <connection from="--30404#1" to="--30404#0" fromLane="0" toLane="0"/>
    <connection from="--30404#1" to="--30404#0" fromLane="1" toLane="1"/>
    <connection from="--30404#1" to="--31436#2" fromLane="1" toLane="0"/>

    <connection from="--30404#2" to="-30282" fromLane="0" toLane="0"/>
    <connection from="--30404#2" to="--30404#1" fromLane="0" toLane="0"/>
    <connection from="--30404#2" to="--30404#1" fromLane="1" toLane="1"/>

    <connection from="--30404#3" to="--30404#2" fromLane="0" toLane="0"/>
    <connection from="--30404#3" to="--30404#2" fromLane="1" toLane="1"/>
    <connection from="--30404#3" to="-31436#0" fromLane="1" toLane="0"/>

    <connection from="--30404#4" to="--30404#3" fromLane="0" toLane="0"/>
    <connection from="--30404#4" to="--30404#3" fromLane="1" toLane="1"/>
    <connection from="--30404#4" to="--32722#2" fromLane="1" toLane="0"/>

    <connection from="--30404#5" to="--30404#4" fromLane="0" toLane="0"/>
    <connection from="--30404#5" to="--30404#4" fromLane="1" toLane="1"/>
    <connection from="--30404#5" to="--31326#1" fromLane="1" toLane="0"/>

    <connection from="--30408" to="--32432#3" fromLane="0" toLane="0"/>
    <connection from="--30408" to="-32432#4" fromLane="0" toLane="1"/>

    <connection from="--30410" to="--32634#9" fromLane="0" toLane="0"/>
    <connection from="--30410" to="-32634#10" fromLane="0" toLane="0"/>

    <connection from="--30416#0" to="-30306#6" fromLane="0" toLane="0"/>
    <connection from="--30416#0" to="--30306#5" fromLane="0" toLane="0"/>

    <connection from="--30416#1" to="--30416#0" fromLane="0" toLane="0"/>
    <connection from="--30416#1" to="-31422" fromLane="0" toLane="0"/>

    <connection from="--30416#2" to="--30416#1" fromLane="0" toLane="0"/>
    <connection from="--30416#2" to="--31646" fromLane="0" toLane="0"/>

    <connection from="--30418#0" to="-30770#2" fromLane="0" toLane="0"/>
    <connection from="--30418#0" to="--30770#1" fromLane="0" toLane="0"/>

    <connection from="--30418#1" to="--30262#1" fromLane="0" toLane="0"/>
    <connection from="--30418#1" to="--30418#0" fromLane="0" toLane="0"/>
    <connection from="--30418#1" to="-30262#2" fromLane="0" toLane="0"/>

    <connection from="--30418#2" to="--31958" fromLane="0" toLane="0"/>
    <connection from="--30418#2" to="--30418#1" fromLane="0" toLane="0"/>

    <connection from="--30418#3" to="-32786#3" fromLane="0" toLane="0"/>
    <connection from="--30418#3" to="--30418#2" fromLane="0" toLane="0"/>
    <connection from="--30418#3" to="--32786#2" fromLane="0" toLane="0"/>

    <connection from="--30418#4" to="--30418#3" fromLane="0" toLane="0"/>
    <connection from="--30418#4" to="-30598#0" fromLane="0" toLane="0"/>

    <connection from="--30418#5" to="-32290" fromLane="0" toLane="0"/>
    <connection from="--30418#5" to="--30418#4" fromLane="0" toLane="0"/>
    <connection from="--30418#5" to="--31148" fromLane="0" toLane="0"/>

    <connection from="--30418#6" to="--30418#5" fromLane="0" toLane="0"/>
    <connection from="--30418#6" to="--30842#4" fromLane="0" toLane="0"/>

    <connection from="--30420" to="--32638#1" fromLane="0" toLane="0"/>
    <connection from="--30420" to="-32638#2" fromLane="0" toLane="1"/>

    <connection from="--30422" to="--31966#9" fromLane="0" toLane="0"/>
    <connection from="--30422" to="-31966#10" fromLane="0" toLane="1"/>
    <connection from="--30422" to="--32742#5" fromLane="0" toLane="1"/>
