<?xml version="1.0" encoding="UTF-8"?>

<!-- generated on 2023-02-13 19:00:48 by Eclipse SUMO netconvert Version 1.15.0
<configuration xmlns:xsi="http://www.w3.org/2001/XMLSchema-instance" xsi:noNamespaceSchemaLocation="http://sumo.dlr.de/xsd/netconvertConfiguration.xsd">

    <input>
        <sumo-net-file value="lust.net.xml"/>
    </input>

    <output>
        <plain-output-prefix value="true"/>
    </output>

    <processing>
        <geometry.min-radius.fix.railways value="false"/>
        <geometry.max-grade.fix value="false"/>
        <offset.disable-normalization value="true"/>
        <lefthand value="0"/>
    </processing>

    <junctions>
        <no-turnarounds value="true"/>
        <junctions.corner-detail value="0"/>
        <junctions.limit-turn-speed value="-1.00"/>
        <rectangular-lane-cut value="0"/>
    </junctions>

    <pedestrian>
        <walkingareas value="0"/>
    </pedestrian>

</configuration>
-->

<edges version="1.9" xmlns:xsi="http://www.w3.org/2001/XMLSchema-instance" xsi:noNamespaceSchemaLocation="http://sumo.dlr.de/xsd/edges_file.xsd">
    <edge id="--30244#0" from="-24112" to="-11042" priority="6" type="highway.tertiary" numLanes="2" speed="13.89" shape="9720.70,9708.93 9675.42,9684.66 9666.58,9679.97 9631.91,9658.84 9596.53,9630.50 9564.21,9603.78 9530.99,9572.91 9508.79,9549.26 9486.22,9522.00 9469.43,9498.35 9452.82,9470.73 9445.45,9456.17 9437.52,9440.18 9431.83,9414.95 9428.99,9387.11 9430.77,9366.98 9434.32,9347.67 9441.78,9327.89 9452.56,9307.18 9464.73,9285.74 9483.41,9264.43 9528.65,9218.91"/>
    <edge id="--30244#1" from="-20104" to="-24112" priority="6" type="highway.tertiary" numLanes="2" speed="13.89" shape="9865.70,9764.60 9814.09,9747.36 9720.70,9708.93"/>
    <edge id="--30244#2" from="-14160" to="-20104" priority="6" type="highway.tertiary" numLanes="2" speed="13.89" shape="10001.68,9790.02 9955.72,9783.89 9928.76,9778.89 9916.83,9776.67 9903.67,9773.91 9897.81,9772.70 9893.36,9771.81 9884.52,9769.80 9875.80,9767.56 9865.70,9764.60"/>
    <edge id="--30244#3" from="-16002" to="-14160" priority="6" type="highway.tertiary" numLanes="2" speed="13.89" shape="10161.21,9782.53 10124.17,9789.05 10083.31,9792.07 10057.14,9791.91 10031.01,9791.76 10001.68,9790.02"/>
    <edge id="--30244#4" from="-2196" to="-16002" priority="6" type="highway.tertiary" numLanes="2" speed="13.89" shape="10287.95,9699.14 10277.28,9712.16 10266.71,9724.84 10257.95,9733.27 10247.46,9742.32 10230.28,9756.70 10217.91,9763.90 10212.95,9766.27 10208.60,9768.22 10196.55,9773.28 10190.15,9775.29 10175.75,9778.92 10161.21,9782.53"/>
    <edge id="--30246" from="-6486" to="-12260" priority="4" type="highway.residential" numLanes="1" speed="13.89" shape="7199.46,7879.69 7196.26,7917.21 7188.75,7932.08 7194.80,7950.23 7207.76,7969.63 7230.62,7962.76 7221.90,7930.25"/>
    <edge id="--30248" from="-9506" to="-5258" priority="4" type="highway.residential" numLanes="1" speed="13.89"/>
    <edge id="--30250" from="-28752" to="-26738" priority="4" type="highway.residential" numLanes="1" speed="13.89"/>
    <edge id="--30252" from="-16012" to="-11178" priority="4" type="highway.residential" numLanes="1" speed="13.89"/>
    <edge id="--30254#0" from="-3350" to="-4510" priority="4" type="highway.residential" numLanes="1" speed="13.89"/>
    <edge id="--30254#1" from="-27354" to="-3350" priority="4" type="highway.residential" numLanes="1" speed="13.89"/>
    <edge id="--30256#0" from="-27336" to="-4214" priority="9" type="highway.primary" numLanes="3" speed="13.89" shape="6327.69,7270.47 6485.75,7229.36 6494.84,7226.61 6505.69,7223.09"/>
    <edge id="--30256#1" from="-10820" to="-27336" priority="9" type="highway.primary" numLanes="3" speed="13.89" shape="5966.16,7368.21 5998.50,7359.01 6029.43,7351.64 6055.14,7344.86 6061.94,7343.07 6068.82,7341.43 6085.45,7336.92 6108.94,7330.42 6147.31,7319.65 6184.13,7310.23 6209.79,7303.07 6231.84,7297.47 6271.50,7285.67 6327.69,7270.47"/>
    <edge id="--30256#2" from="-266" to="-10820" priority="9" type="highway.primary" numLanes="3" speed="13.89" shape="5863.93,7396.00 5908.74,7384.01 5966.16,7368.21"/>
    <edge id="--30256#3" from="-16136" to="-266" priority="9" type="highway.primary" numLanes="3" speed="13.89"/>
    <edge id="--30258" from="-7254" to="-9024" priority="4" type="highway.residential" numLanes="1" speed="13.89"/>
    <edge id="--30260" from="-15774" to="-23560" priority="7" type="highway.secondary" numLanes="2" speed="16.67" shape="9468.13,3197.98 9436.00,3138.20 9426.42,3101.92 9423.54,3062.17 9420.05,3021.76 9410.55,2973.83 9394.32,2933.33 9367.27,2895.71 9335.46,2852.97 9303.34,2822.93 9213.48,2781.68 9157.88,2744.97 9146.75,2728.55"/>
    <edge id="--30262#0" from="-9084" to="-23602" priority="4" type="highway.residential" numLanes="1" speed="13.89"/>
    <edge id="--30262#1" from="-18288" to="-9084" priority="4" type="highway.residential" numLanes="1" speed="13.89"/>
    <edge id="--30262#2" from="-7206" to="-18288" priority="4" type="highway.residential" numLanes="1" speed="13.89"/>
    <edge id="--30264#0" from="-1784" to="-15600" priority="4" type="highway.residential" numLanes="1" speed="13.89" shape="10301.67,8677.83 10291.28,8697.06 10270.92,8705.13 10250.13,8698.26 10238.64,8679.68 10241.81,8658.07 10258.17,8643.55 10280.06,8642.91 10297.24,8656.45"/>
    <edge id="--30264#1" from="-15600" to="-1784" priority="4" type="highway.residential" numLanes="1" speed="13.89"/>
    <edge id="--30266" from="-29244" to="-17348" priority="4" type="highway.residential" numLanes="1" speed="13.89" shape="7532.59,10907.74 7538.72,10914.12 7543.96,10917.31 7551.59,10921.93 7556.39,10923.30 7570.95,10927.47 7608.98,10931.39 7677.91,10926.35"/>
    <edge id="--30270#0" from="-22152" to="-18014" priority="4" type="highway.residential" numLanes="1" speed="13.89" shape="7860.84,9875.59 7900.73,9881.66 7917.55,9895.24 7923.58,9910.93 7897.49,10046.22"/>
    <edge id="--30270#1" from="-26590" to="-22152" priority="4" type="highway.residential" numLanes="1" speed="13.89"/>
    <edge id="--30272" from="-26118" to="-1628" priority="4" type="highway.residential" numLanes="1" speed="13.89" shape="6572.49,9059.41 6551.38,9103.59 6529.25,9132.66 6509.58,9157.81 6501.64,9170.01 6485.79,9196.52"/>
    <edge id="--30274" from="-1672" to="-15484" priority="4" type="highway.residential" numLanes="1" speed="13.89"/>
    <edge id="--30278" from="-9738" to="-16272" priority="6" type="highway.tertiary" numLanes="2" speed="13.89"/>
    <edge id="--30280" from="-11478" to="-5992" priority="4" type="highway.residential" numLanes="1" speed="13.89"/>
    <edge id="--30282" from="-25994" to="-27604" priority="4" type="highway.residential" numLanes="1" speed="13.89" shape="1880.17,6904.34 1893.50,7032.15 1908.09,7149.37 1909.86,7164.85 1912.30,7170.33 1917.97,7174.77 1924.87,7175.42 1931.55,7174.86 1936.03,7174.44 1951.13,7186.01 1950.59,7232.61"/>
    <edge id="--30284#0" from="-14104" to="-13708" priority="4" type="highway.residential" numLanes="1" speed="13.89" shape="5820.33,8591.46 5812.79,8593.71 5808.45,8598.55 5807.20,8604.06 5808.06,8644.60 5809.74,8652.39 5818.85,8657.22"/>
    <edge id="--30286#0" from="-3780" to="-1596" priority="4" type="highway.residential" numLanes="1" speed="13.89" shape="8810.62,2170.59 8809.62,2178.41 8794.92,2260.04"/>
    <edge id="--30286#1" from="-17592" to="-3780" priority="4" type="highway.residential" numLanes="1" speed="13.89"/>
    <edge id="--30286#2" from="-30024" to="-17592" priority="4" type="highway.residential" numLanes="1" speed="13.89" shape="8807.06,1958.76 8817.80,1973.59 8824.75,1986.81 8828.38,2001.31 8830.15,2014.55 8829.62,2027.95 8828.67,2034.26 8823.93,2070.98"/>
    <edge id="--30286#3" from="-11618" to="-30024" priority="4" type="highway.residential" numLanes="1" speed="13.89" shape="8755.08,1941.46 8779.34,1945.04 8793.11,1950.93 8807.06,1958.76"/>
    <edge id="--30286#4" from="-1568" to="-11618" priority="4" type="highway.residential" numLanes="1" speed="13.89"/>
    <edge id="--30288#0" from="-14550" to="-26134" priority="4" type="highway.residential" numLanes="1" speed="13.89"/>
    <edge id="--30288#1" from="-5664" to="-14550" priority="4" type="highway.residential" numLanes="1" speed="13.89"/>
    <edge id="--30290" from="-10042" to="-13472" priority="4" type="highway.residential" numLanes="1" speed="13.89" shape="10470.68,7777.76 10466.68,7756.76 10459.46,7725.41 10356.39,7691.53"/>
    <edge id="--30294#0" from="-5582" to="-29354" priority="4" type="highway.residential" numLanes="1" speed="13.89" shape="7681.48,5365.15 7693.00,5423.99 7704.50,5475.84 7706.10,5489.23"/>
    <edge id="--30294#1" from="-21748" to="-5582" priority="4" type="highway.residential" numLanes="1" speed="13.89" shape="7632.70,5208.75 7640.65,5213.80 7645.61,5217.64 7648.71,5224.14 7650.55,5230.93 7670.43,5315.79 7675.26,5336.41 7681.48,5365.15"/>
    <edge id="--30296" from="-4216" to="-25936" priority="4" type="highway.residential" numLanes="1" speed="13.89" shape="8803.66,9963.06 8779.12,9995.02 8772.10,10031.17 8818.86,10073.06 8851.57,10099.97 8866.67,10116.24 8897.23,10154.08 8907.27,10170.64 8926.53,10191.30"/>
    <edge id="--30304#0" from="-4086" to="-27048" priority="4" type="highway.residential" numLanes="1" speed="13.89" shape="3401.95,8617.53 3215.78,8810.08 2923.62,8803.14 2931.34,8698.70 2956.25,8662.80 2990.21,8634.39 2996.58,8563.20 2998.83,8525.35 3001.00,8517.22 3014.94,8516.95 3027.72,8500.17"/>
    <edge id="--30304#1" from="-12526" to="-4086" priority="4" type="highway.residential" numLanes="1" speed="13.89"/>
    <edge id="--30304#2" from="-17238" to="-12526" priority="4" type="highway.residential" numLanes="1" speed="13.89"/>
    <edge id="--30306#0" from="-14526" to="-25746" priority="4" type="highway.residential" numLanes="1" speed="13.89" shape="840.82,7122.00 819.99,7118.20 781.48,7117.86 729.07,7119.26 710.06,7118.43 591.71,7102.96"/>
    <edge id="--30306#1" from="-10034" to="-14526" priority="4" type="highway.residential" numLanes="1" speed="13.89" shape="968.29,7108.68 933.63,7131.69 912.16,7135.06 892.54,7131.45 840.82,7122.00"/>
    <edge id="--30306#2" from="-8806" to="-10034" priority="4" type="highway.residential" numLanes="1" speed="13.89" shape="1041.64,7130.98 1034.36,7129.87 1026.34,7128.00 1018.49,7126.45 1010.19,7124.12 1005.23,7122.52 1000.67,7121.16 988.01,7116.97 974.54,7111.99 968.29,7108.68"/>
    <edge id="--30306#3" from="-5188" to="-8806" priority="4" type="highway.residential" numLanes="1" speed="13.89"/>
    <edge id="--30306#4" from="-12256" to="-5188" priority="4" type="highway.residential" numLanes="1" speed="13.89"/>
    <edge id="--30306#5" from="-15452" to="-12256" priority="4" type="highway.residential" numLanes="1" speed="13.89" shape="1339.33,7169.22 1302.29,7168.82 1210.54,7161.20 1187.40,7158.16 1159.40,7154.02"/>
    <edge id="--30306#6" from="-25508" to="-15452" priority="4" type="highway.residential" numLanes="1" speed="13.89"/>
    <edge id="--30314#0" from="-1912" to="-16866" priority="9" type="highway.primary" numLanes="3" speed="19.44" shape="1332.48,8364.78 1362.27,8366.70 1390.19,8368.50 1402.45,8369.17 1410.99,8369.80 1416.89,8370.14 1422.42,8370.43 1441.08,8371.45 1461.55,8372.41 1490.77,8374.21 1501.24,8374.86 1509.76,8375.38 1517.70,8375.87 1525.23,8376.35 1534.95,8376.94 1595.19,8377.84"/>
    <edge id="--30314#1" from="-19628" to="-1912" priority="9" type="highway.primary" numLanes="3" speed="19.44" shape="1032.82,8345.05 1256.90,8359.77 1332.48,8364.78"/>
    <edge id="--30316" from="-1542" to="-25286" priority="4" type="highway.residential" numLanes="1" speed="13.89" shape="3156.00,6225.18 3138.56,6253.54 3108.90,6264.60 3034.25,6279.84 2975.69,6291.79 2972.48,6292.45 2892.06,6417.48 2855.70,6481.64 2772.28,6525.49 2690.19,6508.39 2610.43,6456.14 2578.49,6396.49 2583.01,6322.50 2638.92,6285.26 2709.02,6326.81 2760.75,6324.79 2801.03,6266.02 2743.49,6166.76 2721.38,6009.83"/>
    <edge id="--30318" from="-2100" to="-26286" priority="4" type="highway.residential" numLanes="1" speed="13.89" shape="2069.15,7940.91 2071.76,7918.11 2085.22,7846.72"/>
    <edge id="--30320" from="-10136" to="-26628" priority="4" type="highway.residential" numLanes="1" speed="13.89" shape="6866.63,3295.16 6889.01,3324.19 6900.39,3339.14 6910.60,3352.14 6914.81,3357.53 6918.78,3362.56 6923.09,3367.99 6928.34,3374.90 6938.90,3388.60 6950.28,3403.95 6972.96,3434.07 6934.37,3462.37"/>
    <edge id="--30328#0" from="-3290" to="-4320" priority="4" type="highway.residential" numLanes="1" speed="13.89"/>
    <edge id="--30328#1" from="-9720" to="-3290" priority="4" type="highway.residential" numLanes="1" speed="13.89" shape="10640.21,4010.25 10682.87,4063.03 10680.47,4067.99 10635.64,4112.67"/>
    <edge id="--30328#2" from="-6534" to="-9720" priority="4" type="highway.residential" numLanes="1" speed="13.89"/>
    <edge id="--30328#3" from="-18230" to="-6534" priority="4" type="highway.residential" numLanes="1" speed="13.89" shape="10573.83,3946.79 10599.34,3975.16 10620.26,3987.70"/>
    <edge id="--30330" from="-1230" to="-2046" priority="4" type="highway.residential" numLanes="1" speed="13.89" shape="8261.37,4495.20 8240.31,4483.21 8233.18,4476.61 8204.59,4459.32"/>
    <edge id="--30334#0" from="-11702" to="-21044" priority="4" type="highway.residential" numLanes="1" speed="13.89"/>
    <edge id="--30334#1" from="-20904" to="-11702" priority="4" type="highway.residential" numLanes="1" speed="13.89" shape="7546.45,9410.32 7556.40,9357.89 7557.54,9306.49 7551.87,9265.45 7547.19,9238.79 7479.20,9139.77"/>
    <edge id="--30334#2" from="-22802" to="-20904" priority="4" type="highway.residential" numLanes="1" speed="13.89" shape="7418.47,9555.36 7511.75,9459.34 7531.34,9433.11 7546.45,9410.32"/>
    <edge id="--30336#0" from="-22698" to="-5892" priority="9" type="highway.primary" numLanes="3" speed="16.67" shape="1865.53,6084.01 1768.45,5973.51 1750.50,5949.73 1736.82,5926.24 1728.90,5903.79 1724.19,5879.83 1723.68,5861.82 1725.65,5842.75 1731.26,5822.43 1737.99,5804.14 1744.23,5790.07 1754.80,5773.40"/>
    <edge id="--30336#1" from="-14976" to="-22698" priority="9" type="highway.primary" numLanes="3" speed="16.67" shape="2094.19,6864.78 2098.58,6803.18 2091.80,6739.53 2084.71,6659.12 2075.37,6578.50 2042.32,6376.73 2031.24,6334.02 2018.36,6294.36 1996.55,6248.05 1971.83,6205.84 1951.38,6178.13 1933.10,6158.10 1917.86,6141.23 1876.57,6096.12 1865.53,6084.01"/>
    <edge id="--30336#2" from="-12752" to="-14976" priority="9" type="highway.primary" numLanes="3" speed="19.44" shape="2142.13,7173.32 2118.61,7113.94 2109.11,7086.34 2100.58,7052.63 2093.24,7013.40 2090.77,6971.52 2090.49,6940.60 2092.56,6910.75 2093.35,6892.49 2094.19,6864.78"/>
    <edge id="--30344" from="-22272" to="-17594" priority="4" type="highway.residential" numLanes="1" speed="13.89"/>
    <edge id="--30346#0" from="-21348" to="-12582" priority="4" type="highway.residential" numLanes="1" speed="13.89" shape="6342.13,4939.51 6327.00,4943.15 6255.25,4953.04 6204.52,4954.72"/>
    <edge id="--30346#1" from="-20538" to="-21348" priority="4" type="highway.residential" numLanes="1" speed="13.89" shape="6481.66,4823.52 6413.87,4879.87 6342.13,4939.51"/>
    <edge id="--30348#0" from="-15090" to="-12084" priority="6" type="highway.tertiary" numLanes="2" speed="13.89" shape="6351.73,5020.10 6268.40,5086.65 6254.81,5096.84 6230.08,5108.31"/>
    <edge id="--30348#1" from="-4042" to="-15090" priority="6" type="highway.tertiary" numLanes="2" speed="13.89"/>
    <edge id="--30348#2" from="-24768" to="-4042" priority="6" type="highway.tertiary" numLanes="2" speed="13.89" shape="6477.72,4917.53 6457.97,4933.85 6436.91,4951.44 6433.20,4954.43 6429.54,4957.40 6411.20,4972.59 6384.95,4994.37"/>
    <edge id="--30348#3" from="-17730" to="-24768" priority="6" type="highway.tertiary" numLanes="2" speed="13.89" shape="6523.57,4874.05 6517.32,4880.31 6511.08,4885.78 6506.65,4889.78 6502.22,4893.84 6498.81,4897.12 6495.42,4900.43 6486.60,4908.84 6477.72,4917.53"/>
    <edge id="--30348#4" from="-16936" to="-17730" priority="6" type="highway.tertiary" numLanes="2" speed="13.89" shape="6633.14,4813.07 6607.63,4825.63 6576.40,4840.12 6546.77,4856.96 6523.57,4874.05"/>
    <edge id="--30348#5" from="-16998" to="-16936" priority="6" type="highway.tertiary" numLanes="2" speed="13.89" shape="6790.05,4750.20 6781.22,4755.12 6763.91,4761.29 6752.32,4765.21 6742.75,4768.49 6736.86,4770.42 6729.28,4772.72 6719.42,4775.78 6702.30,4781.91 6633.14,4813.07"/>
    <edge id="--30350" from="-11052" to="-8666" priority="4" type="highway.residential" numLanes="1" speed="13.89"/>
    <edge id="--30352" from="-21786" to="-22248" priority="4" type="highway.residential" numLanes="1" speed="13.89"/>
    <edge id="--30354" from="-7806" to="-21058" priority="4" type="highway.residential" numLanes="1" speed="13.89"/>
    <edge id="--30358#0" from="-7298" to="-1912" priority="7" type="highway.secondary" numLanes="2" speed="16.67" shape="1349.92,8239.65 1348.25,8277.16 1346.21,8288.93 1343.71,8300.08 1341.64,8311.64 1336.45,8330.36 1332.48,8364.78"/>
    <edge id="--30358#1" from="-4818" to="-7298" priority="7" type="highway.secondary" numLanes="2" speed="16.67"/>
    <edge id="--30358#10" from="-25508" to="-11514" priority="7" type="highway.secondary" numLanes="2" speed="16.67" shape="1379.96,7170.35 1378.24,7177.07 1369.68,7234.21"/>
    <edge id="--30358#11" from="-5126" to="-25508" priority="7" type="highway.secondary" numLanes="2" speed="16.67" shape="1465.33,7128.37 1439.55,7136.46 1414.77,7149.14 1391.93,7160.36 1384.77,7164.01 1379.96,7170.35"/>
    <edge id="--30358#12" from="-13188" to="-5126" priority="7" type="highway.secondary" numLanes="2" speed="16.67" shape="1471.91,7014.10 1471.03,7031.92 1470.59,7048.47 1470.54,7056.62 1470.31,7063.35 1470.08,7068.70 1470.05,7074.39 1470.09,7082.45 1469.28,7090.74 1467.74,7098.98 1467.67,7106.89 1467.01,7117.63 1465.33,7128.37"/>
    <edge id="--30358#13" from="-2722" to="-13188" priority="7" type="highway.secondary" numLanes="2" speed="16.67"/>
    <edge id="--30358#14" from="-25642" to="-2722" priority="7" type="highway.secondary" numLanes="2" speed="16.67"/>
    <edge id="--30358#15" from="-2692" to="-25642" priority="7" type="highway.secondary" numLanes="2" speed="16.67" shape="1554.73,6566.29 1543.94,6598.42 1538.07,6615.88 1535.16,6633.95 1526.79,6721.71 1496.58,6894.31"/>
    <edge id="--30358#16" from="-6224" to="-2692" priority="7" type="highway.secondary" numLanes="2" speed="16.67" shape="1605.42,6404.87 1595.39,6443.50 1591.41,6456.85 1588.93,6467.18 1586.00,6476.82 1577.92,6499.27 1569.63,6522.02 1558.19,6555.27 1554.73,6566.29"/>
    <edge id="--30358#17" from="-8362" to="-6224" priority="7" type="highway.secondary" numLanes="2" speed="16.67" shape="1632.94,6336.36 1614.96,6376.02 1605.42,6404.87"/>
    <edge id="--30358#18" from="-22698" to="-8362" priority="7" type="highway.secondary" numLanes="2" speed="16.67" shape="1865.53,6084.01 1826.97,6102.22 1790.64,6118.94 1775.82,6125.58 1763.29,6133.36 1742.26,6150.73 1730.60,6164.37 1722.68,6175.31 1717.41,6183.76 1707.93,6203.04 1690.90,6241.08 1677.65,6265.86 1640.15,6324.68 1632.94,6336.36"/>
    <edge id="--30358#2" from="-15920" to="-4818" priority="7" type="highway.secondary" numLanes="2" speed="16.67" shape="1344.14,7878.88 1344.12,7893.94 1344.09,7901.54 1344.40,7910.89 1344.58,7918.11 1344.79,7922.47 1344.83,7926.51 1345.04,7934.72 1345.50,7960.21 1345.92,7986.89 1346.01,8002.92 1346.12,8012.02 1345.88,8022.84 1345.98,8064.38"/>
    <edge id="--30358#3" from="-28576" to="-15920" priority="7" type="highway.secondary" numLanes="2" speed="16.67" shape="1365.48,7780.44 1364.64,7787.93 1351.48,7847.88 1344.14,7878.88"/>
    <edge id="--30358#4" from="-24222" to="-28576" priority="7" type="highway.secondary" numLanes="2" speed="16.67" shape="1369.44,7707.65 1369.60,7719.59 1369.72,7730.43 1369.58,7736.02 1369.53,7741.46 1368.32,7754.98 1366.75,7768.49 1365.48,7780.44"/>
    <edge id="--30358#5" from="-13232" to="-24222" priority="7" type="highway.secondary" numLanes="2" speed="16.67"/>
    <edge id="--30358#6" from="-5462" to="-13232" priority="7" type="highway.secondary" numLanes="2" speed="16.67"/>
    <edge id="--30358#7" from="-23604" to="-5462" priority="7" type="highway.secondary" numLanes="2" speed="16.67" shape="1328.74,7437.13 1332.72,7475.39 1342.78,7528.08 1346.67,7540.89"/>
    <edge id="--30358#8" from="-1270" to="-23604" priority="7" type="highway.secondary" numLanes="2" speed="16.67" shape="1342.11,7327.37 1333.67,7378.69 1328.74,7437.13"/>
    <edge id="--30358#9" from="-11514" to="-1270" priority="7" type="highway.secondary" numLanes="2" speed="16.67" shape="1369.68,7234.21 1364.48,7251.47 1359.77,7266.94 1356.42,7277.44 1354.59,7283.66 1353.34,7287.91 1351.54,7293.80 1346.82,7309.85 1342.11,7327.37"/>
    <edge id="--30360" from="-22428" to="-11954" priority="4" type="highway.residential" numLanes="1" speed="13.89" shape="9155.62,10159.76 9128.33,10172.35 9078.57,10176.85 9053.87,10190.74 9032.53,10212.33 9024.56,10220.38 9001.02,10247.86 8992.80,10272.10 8988.08,10296.51"/>
    <edge id="--30362#0" from="-4160" to="-5428" priority="4" type="highway.residential" numLanes="2" speed="13.89" shape="5565.43,6283.25 5534.42,6393.67 5522.88,6431.54 5498.53,6490.66"/>
    <edge id="--30362#1" from="-21140" to="-4160" priority="4" type="highway.residential" numLanes="2" speed="13.89" shape="5600.28,6195.84 5597.62,6201.89 5587.96,6221.17 5578.50,6240.62 5575.75,6249.58 5565.43,6283.25"/>
    <edge id="--30364#0" from="-6600" to="-13248" priority="4" type="highway.residential" numLanes="1" speed="13.89"/>
    <edge id="--30364#1" from="-10132" to="-6600" priority="4" type="highway.residential" numLanes="1" speed="13.89" shape="7989.53,5119.03 7992.56,5133.08 7970.83,5188.43 7958.25,5188.30"/>
    <edge id="--30364#2" from="-19580" to="-10132" priority="4" type="highway.residential" numLanes="1" speed="13.89"/>
    <edge id="--30368" from="-29050" to="-29226" priority="4" type="highway.residential" numLanes="1" speed="13.89" shape="6163.15,6682.23 6174.87,6678.58 6163.05,6640.85 6148.68,6603.62 6138.39,6605.96"/>
    <edge id="--30370#0" from="-13438" to="-22024" priority="4" type="highway.residential" numLanes="1" speed="13.89"/>
    <edge id="--30370#1" from="-2050" to="-13438" priority="4" type="highway.residential" numLanes="1" speed="13.89"/>
    <edge id="--30370#2" from="-25796" to="-2050" priority="4" type="highway.residential" numLanes="1" speed="13.89"/>
    <edge id="--30370#3" from="-9580" to="-25796" priority="4" type="highway.residential" numLanes="1" speed="13.89" shape="5173.53,6620.51 5128.08,6615.14 5119.67,6615.03 5033.66,6613.03"/>
    <edge id="--30370#4" from="-7638" to="-9580" priority="4" type="highway.residential" numLanes="1" speed="13.89" shape="5256.92,6633.84 5233.68,6629.38 5173.53,6620.51"/>
    <edge id="--30370#5" from="-6370" to="-7638" priority="4" type="highway.residential" numLanes="1" speed="13.89"/>
    <edge id="--30370#6" from="-27834" to="-6370" priority="4" type="highway.residential" numLanes="1" speed="13.89"/>
    <edge id="--30370#7" from="-12904" to="-27834" priority="4" type="highway.residential" numLanes="1" speed="13.89"/>
    <edge id="--30372#0" from="-2814" to="-552" priority="4" type="highway.residential" numLanes="1" speed="13.89"/>
    <edge id="--30372#1" from="-2212" to="-2814" priority="4" type="highway.residential" numLanes="1" speed="13.89" shape="9813.50,7614.59 9739.14,7635.41 9675.15,7656.07 9663.77,7691.75 9660.40,7700.92"/>
    <edge id="--30374" from="-2792" to="-24690" priority="4" type="highway.residential" numLanes="1" speed="13.89"/>
    <edge id="--30376" from="-16844" to="-22050" priority="7" type="highway.secondary" numLanes="2" speed="16.67"/>
    <edge id="--30378#0" from="-8226" to="-16312" priority="4" type="highway.residential" numLanes="1" speed="13.89" shape="7996.88,2551.72 8028.89,2545.93 8060.54,2542.86 8113.82,2538.98 8139.05,2539.51 8159.97,2548.81"/>
    <edge id="--30378#1" from="-24796" to="-8226" priority="4" type="highway.residential" numLanes="1" speed="13.89" shape="7880.85,2571.20 7927.26,2565.15 7996.88,2551.72"/>
    <edge id="--30378#2" from="-268" to="-24796" priority="4" type="highway.residential" numLanes="1" speed="13.89" shape="7823.68,2579.59 7812.82,2580.78 7761.35,2587.98 7753.98,2483.26 7743.82,2383.89 7747.31,2377.56 7759.52,2372.14 7846.16,2378.71 7867.29,2379.20 7872.95,2382.45 7876.84,2386.48 7880.22,2393.28 7877.11,2462.81 7880.85,2571.20"/>
    <edge id="--30378#3" from="-24796" to="-268" priority="4" type="highway.residential" numLanes="1" speed="13.89"/>
    <edge id="--30382" from="-11912" to="-12184" priority="4" type="highway.residential" numLanes="1" speed="13.89" shape="7622.73,10297.76 7647.41,10305.98 7665.23,10309.38 7711.31,10319.65 7730.10,10327.51"/>
    <edge id="--30388#0" from="-6428" to="-22994" priority="4" type="highway.residential" numLanes="1" speed="13.89" shape="9255.14,7390.98 9294.63,7404.72 9304.81,7414.27 9337.67,7445.11 9363.64,7468.94"/>
    <edge id="--30388#1" from="-13322" to="-6428" priority="4" type="highway.residential" numLanes="1" speed="13.89" shape="9207.44,7518.23 9188.92,7507.77 9159.50,7491.17 9133.29,7476.37 9129.27,7469.38 9126.52,7460.16 9125.88,7447.91 9124.31,7414.88 9124.07,7381.78 9131.16,7368.74 9135.73,7363.16 9149.48,7355.29 9204.69,7373.93 9255.14,7390.98"/>
    <edge id="--30388#2" from="-4468" to="-13322" priority="4" type="highway.residential" numLanes="1" speed="13.89" shape="9333.93,7565.98 9306.63,7570.55 9272.19,7554.77 9244.33,7539.05 9218.38,7524.40 9207.44,7518.23"/>
    <edge id="--30390" from="-18474" to="-25314" priority="4" type="highway.residential" numLanes="1" speed="13.89" shape="1706.16,7429.17 1698.14,7419.25 1687.27,7403.21 1677.10,7371.13"/>
    <edge id="--30392#0" from="-30020" to="-6772" priority="4" type="highway.residential" numLanes="1" speed="13.89" shape="5214.03,7952.47 5218.80,7946.81 5219.82,7939.49 5216.79,7932.74 5210.62,7928.64 5203.21,7928.44 5196.82,7932.20 5193.42,7938.77"/>
    <edge id="--30392#1" from="-6772" to="-30020" priority="4" type="highway.residential" numLanes="1" speed="13.89" shape="5193.42,7938.77 5195.42,7948.81 5203.96,7954.49 5214.03,7952.47"/>
    <edge id="--30396#0" from="-10422" to="-10348" priority="4" type="highway.residential" numLanes="1" speed="13.89"/>
    <edge id="--30396#1" from="-29500" to="-10422" priority="4" type="highway.residential" numLanes="1" speed="13.89"/>
    <edge id="--30396#2" from="-10970" to="-29500" priority="4" type="highway.residential" numLanes="1" speed="13.89"/>
    <edge id="--30396#3" from="-25246" to="-10970" priority="4" type="highway.residential" numLanes="1" speed="13.89"/>
    <edge id="--30398#0" from="-10750" to="-2674" priority="4" type="highway.residential" numLanes="1" speed="13.89"/>
    <edge id="--30398#1" from="-3222" to="-10750" priority="4" type="highway.residential" numLanes="1" speed="13.89"/>
    <edge id="--30398#2" from="-2968" to="-3222" priority="4" type="highway.residential" numLanes="1" speed="13.89" shape="8436.68,5329.86 8451.33,5332.00 8490.66,5337.92"/>
    <edge id="--30398#3" from="-25166" to="-2968" priority="4" type="highway.residential" numLanes="1" speed="13.89" shape="8211.36,5293.41 8410.58,5325.86 8426.47,5328.37 8436.68,5329.86"/>
    <edge id="--30398#4" from="-19496" to="-25166" priority="4" type="highway.residential" numLanes="1" speed="13.89"/>
    <edge id="--30398#5" from="-9278" to="-19496" priority="4" type="highway.residential" numLanes="1" speed="13.89"/>
    <edge id="--30398#6" from="-96" to="-9278" priority="4" type="highway.residential" numLanes="1" speed="13.89"/>
    <edge id="--30398#7" from="-22106" to="-96" priority="4" type="highway.residential" numLanes="1" speed="13.89"/>
    <edge id="--30398#8" from="-13248" to="-22106" priority="4" type="highway.residential" numLanes="1" speed="13.89"/>
    <edge id="--30398#9" from="-16944" to="-13248" priority="4" type="highway.residential" numLanes="1" speed="13.89"/>
    <edge id="--30400#0" from="-640" to="-15696" priority="4" type="highway.residential" numLanes="1" speed="13.89"/>
    <edge id="--30400#1" from="-29234" to="-640" priority="4" type="highway.residential" numLanes="1" speed="13.89"/>
    <edge id="--30402" from="-25636" to="-5320" priority="4" type="highway.residential" numLanes="1" speed="13.89" shape="6071.75,4357.05 6068.91,4361.40 6044.21,4377.58 6014.23,4365.28 6006.06,4323.40 5995.39,4247.14 5981.99,4162.07 5964.59,4049.93 5956.42,3986.38 5947.41,3939.72"/>
    <edge id="--30404#0" from="-24180" to="-1076" priority="7" type="highway.secondary" numLanes="2" speed="16.67" shape="2039.30,7241.10 2052.36,7242.35 2060.15,7243.08 2067.26,7242.24 2076.01,7239.79 2083.48,7236.75 2090.85,7233.71 2100.15,7228.24 2113.06,7222.23 2123.39,7216.98"/>
    <edge id="--30404#1" from="-27604" to="-24180" priority="7" type="highway.secondary" numLanes="2" speed="16.67"/>
    <edge id="--30404#2" from="-13794" to="-27604" priority="7" type="highway.secondary" numLanes="2" speed="16.67" shape="1855.93,7214.39 1897.14,7225.56 1923.87,7229.90 1950.59,7232.61"/>
    <edge id="--30404#3" from="-16242" to="-13794" priority="7" type="highway.secondary" numLanes="2" speed="16.67" shape="1701.80,7192.15 1730.44,7194.88 1788.98,7198.84 1810.86,7202.06 1855.93,7214.39"/>
    <edge id="--30404#4" from="-12666" to="-16242" priority="7" type="highway.secondary" numLanes="2" speed="16.67" shape="1560.83,7161.06 1636.33,7177.73 1701.80,7192.15"/>
    <edge id="--30404#5" from="-5126" to="-12666" priority="7" type="highway.secondary" numLanes="2" speed="16.67" shape="1465.33,7128.37 1496.39,7122.35 1512.42,7126.11 1515.49,7127.47 1529.06,7137.33 1545.87,7149.92 1560.83,7161.06"/>