<?xml version="1.0" encoding="UTF-8"?>

<!-- generated on 2023-02-13 19:00:48 by Eclipse SUMO netconvert Version 1.15.0
<configuration xmlns:xsi="http://www.w3.org/2001/XMLSchema-instance" xsi:noNamespaceSchemaLocation="http://sumo.dlr.de/xsd/netconvertConfiguration.xsd">

    <input>
        <sumo-net-file value="lust.net.xml"/>
    </input>

    <output>
        <plain-output-prefix value="true"/>
    </output>

    <processing>
        <geometry.min-radius.fix.railways value="false"/>
        <geometry.max-grade.fix value="false"/>
        <offset.disable-normalization value="true"/>
        <lefthand value="0"/>
    </processing>

    <junctions>
        <no-turnarounds value="true"/>
        <junctions.corner-detail value="0"/>
        <junctions.limit-turn-speed value="-1.00"/>
        <rectangular-lane-cut value="0"/>
    </junctions>

    <pedestrian>
        <walkingareas value="0"/>
    </pedestrian>

</configuration>
-->

<nodes version="1.9" xmlns:xsi="http://www.w3.org/2001/XMLSchema-instance" xsi:noNamespaceSchemaLocation="http://sumo.dlr.de/xsd/nodes_file.xsd">
    <location netOffset="-285448.66,-5492398.13" convBoundary="0.00,0.00,13613.76,11455.04" origBoundary="6.030969,49.549099,6.216758,49.652578" projParameter="+proj=utm +zone=32 +ellps=WGS84 +datum=WGS84 +units=m +no_defs"/>

    <node id="-1000" x="7323.23" y="7166.70" type="priority"/>
    <node id="-10004" x="7986.27" y="6474.32" type="priority"/>
    <node id="-10034" x="968.29" y="7108.68" type="priority"/>
    <node id="-1004" x="7317.77" y="6256.95" type="priority"/>
    <node id="-10042" x="10470.68" y="7777.76" type="priority"/>
    <node id="-10046" x="1631.42" y="8351.01" type="priority"/>
    <node id="-10052" x="5544.23" y="7345.16" type="priority"/>
    <node id="-1008" x="6895.15" y="8673.85" type="priority"/>
    <node id="-10086" x="7894.85" y="9488.20" type="priority"/>
    <node id="-1010" x="7078.19" y="4839.03" type="priority"/>
    <node id="-10100" x="10004.34" y="7910.15" type="priority"/>
    <node id="-10102" x="1536.32" y="6293.31" type="priority"/>
    <node id="-10124" x="930.67" y="6931.46" type="priority"/>
    <node id="-10130" x="4963.99" y="7633.72" type="traffic_light" tl="-10130" tlType="actuated"/>
    <node id="-10132" x="7989.53" y="5119.03" type="priority"/>
    <node id="-10134" x="6854.94" y="8481.07" type="priority"/>
    <node id="-10136" x="6866.63" y="3295.16" type="priority"/>
    <node id="-10156" x="2484.93" y="7968.89" type="traffic_light" tl="-10156" tlType="actuated"/>
    <node id="-10158" x="6670.74" y="4898.75" type="priority"/>
    <node id="-10160" x="11174.53" y="7921.24" type="traffic_light" tl="-10160" tlType="actuated"/>
    <node id="-10168" x="5719.89" y="7368.53" type="priority"/>
    <node id="-10180" x="3736.46" y="2185.93" type="priority"/>
    <node id="-10186" x="9704.48" y="2250.08" type="priority"/>
    <node id="-10204" x="7754.67" y="5027.45" type="priority"/>
    <node id="-10206" x="8527.59" y="1548.69" type="priority"/>
    <node id="-10212" x="8688.76" y="2344.26" type="priority"/>
    <node id="-10230" x="6208.36" y="3309.25" type="priority"/>
    <node id="-10246" x="8379.47" y="4427.36" type="priority"/>
    <node id="-10258" x="7933.18" y="5747.55" type="traffic_light" tl="-10258" tlType="actuated"/>
    <node id="-10278" x="3597.20" y="7232.88" type="priority"/>
    <node id="-10284" x="7923.30" y="4850.63" type="priority"/>
    <node id="-10286" x="8213.33" y="2728.50" type="priority"/>
    <node id="-10290" x="6253.72" y="6524.07" type="priority"/>
    <node id="-10304" x="8191.08" y="4441.21" type="priority"/>
    <node id="-10348" x="7961.14" y="3659.09" type="priority"/>
    <node id="-10356" x="1538.85" y="6084.38" type="dead_end"/>
    <node id="-10360" x="3815.08" y="7962.61" type="priority"/>
    <node id="-104" x="6994.72" y="4587.38" type="priority"/>
    <node id="-10414" x="10245.50" y="3946.16" type="priority"/>
    <node id="-10422" x="7986.90" y="3665.66" type="priority"/>
    <node id="-10438" x="6815.43" y="6883.31" type="traffic_light" tl="-10438" tlType="actuated"/>
    <node id="-10442" x="10049.81" y="8696.08" type="priority"/>
    <node id="-10446" x="3233.27" y="7564.27" type="priority"/>
    <node id="-10458" x="6966.16" y="5967.04" type="priority"/>
    <node id="-1046" x="7188.63" y="7227.11" type="priority"/>
    <node id="-10476" x="6144.93" y="7669.36" type="priority"/>
    <node id="-1048" x="1607.69" y="7369.25" type="priority"/>
    <node id="-10484" x="913.03" y="6993.07" type="priority"/>
    <node id="-10498" x="2968.85" y="7030.57" type="priority"/>
    <node id="-10514" x="7643.44" y="8934.01" type="dead_end"/>
    <node id="-10516" x="956.28" y="7046.94" type="priority"/>
    <node id="-10518" x="7231.96" y="5506.98" type="traffic_light" tl="-10518" tlType="actuated"/>
    <node id="-10520" x="8354.85" y="2651.79" type="priority"/>
    <node id="-10564" x="5385.68" y="5469.32" type="priority"/>
    <node id="-10576" x="7672.29" y="4048.62" type="priority"/>
    <node id="-10584" x="1456.82" y="6502.56" type="priority"/>
    <node id="-10588" x="5583.55" y="7187.59" type="traffic_light" tl="-10588" tlType="actuated"/>
    <node id="-10596" x="8399.39" y="7413.51" type="dead_end"/>
    <node id="-10632" x="5329.68" y="5578.49" type="priority"/>
    <node id="-10666" x="8237.86" y="5451.01" type="priority"/>
    <node id="-10670" x="7486.78" y="9734.85" type="priority"/>
    <node id="-10676" x="6384.04" y="8153.27" type="priority"/>
    <node id="-10678" x="10789.22" y="7670.90" type="priority"/>
    <node id="-10708" x="7782.86" y="7216.35" type="priority"/>
    <node id="-10720" x="9745.78" y="8719.81" type="dead_end"/>
    <node id="-10722" x="3286.92" y="2001.36" type="priority"/>
    <node id="-10750" x="8530.85" y="5344.08" type="priority"/>
    <node id="-1076" x="2123.39" y="7216.98" type="priority"/>
    <node id="-10780" x="8308.16" y="5858.99" type="traffic_light" tl="-10780" tlType="actuated"/>
    <node id="-1080" x="8502.13" y="2293.27" type="priority"/>
    <node id="-10808" x="3849.68" y="4626.30" type="priority" shape="3876.70,4605.56 3872.70,4600.16 3837.45,4638.30 3839.96,4640.16 3876.70,4605.56"/>
    <node id="-10810" x="9306.10" y="2476.00" type="priority"/>
    <node id="-10812" x="9365.09" y="2502.13" type="priority"/>
    <node id="-10820" x="5966.16" y="7368.21" type="traffic_light" tl="-10820" tlType="actuated"/>
    <node id="-10836" x="1699.09" y="8389.09" type="priority"/>
    <node id="-10848" x="1720.99" y="8210.56" type="priority"/>
    <node id="-10854" x="8188.49" y="4942.52" type="priority"/>
    <node id="-1086" x="6526.10" y="6155.00" type="traffic_light" tl="-1086" tlType="actuated"/>
    <node id="-10878" x="8778.09" y="5263.89" type="priority"/>
    <node id="-10886" x="10109.42" y="4160.55" type="priority"/>
    <node id="-10888" x="4000.67" y="7909.75" type="priority"/>
    <node id="-10890" x="3146.78" y="9055.67" type="priority"/>
    <node id="-10908" x="10076.66" y="8015.21" type="priority"/>
    <node id="-10952" x="5138.42" y="8795.42" type="priority"/>
    <node id="-1096" x="7005.69" y="6872.68" type="priority"/>
    <node id="-10960" x="7194.32" y="5089.31" type="priority"/>
    <node id="-10970" x="8037.29" y="3689.28" type="priority"/>
    <node id="-10974" x="5459.78" y="4550.70" type="priority"/>
    <node id="-10978" x="3133.31" y="7580.81" type="priority"/>
    <node id="-11014" x="4805.26" y="7454.07" type="priority"/>
    <node id="-11016" x="10114.27" y="9293.34" type="priority"/>
    <node id="-11018" x="5548.64" y="4582.61" type="priority"/>
    <node id="-11032" x="6009.86" y="7854.26" type="dead_end"/>
    <node id="-11034" x="8297.45" y="8668.05" type="priority"/>
    <node id="-11040" x="6654.20" y="7013.77" type="dead_end"/>
    <node id="-11042" x="9528.65" y="9218.91" type="traffic_light" tl="-11042" tlType="actuated"/>
    <node id="-11052" x="9660.24" y="2576.67" type="dead_end"/>
    <node id="-11066" x="5369.14" y="7009.75" type="priority"/>
    <node id="-11068" x="8433.86" y="7397.60" type="dead_end"/>
    <node id="-11072" x="6691.40" y="7449.16" type="priority" shape="6682.48,7455.12 6693.17,7438.58 6690.10,7433.46 6681.07,7437.27 6680.32,7437.96 6674.11,7448.44 6682.48,7455.12"/>
    <node id="-11116" x="7060.81" y="4565.67" type="priority"/>
    <node id="-11144" x="6476.52" y="6363.58" type="traffic_light" tl="-11144" tlType="actuated"/>
    <node id="-11154" x="3627.93" y="7208.40" type="priority"/>
    <node id="-11162" x="7731.32" y="5510.98" type="priority"/>
    <node id="-11172" x="2610.72" y="9536.34" type="priority"/>
    <node id="-11174" x="6058.93" y="6901.92" type="priority"/>
    <node id="-11178" x="10135.03" y="4340.87" type="priority"/>
    <node id="-1118" x="4394.08" y="8179.14" type="dead_end"/>
    <node id="-11222" x="6953.21" y="6784.79" type="traffic_light" tl="-11222" tlType="actuated"/>
    <node id="-11246" x="3933.21" y="2281.19" type="priority"/>
    <node id="-11256" x="5122.52" y="6699.83" type="priority"/>
    <node id="-11272" x="6540.37" y="4928.90" type="dead_end"/>
    <node id="-11282" x="4155.65" y="8062.30" type="priority"/>
    <node id="-11298" x="9912.64" y="6737.78" type="priority"/>
    <node id="-11324" x="5292.35" y="6578.84" type="priority"/>
    <node id="-11328" x="2105.81" y="8373.04" type="traffic_light" tl="-11328" tlType="actuated"/>
    <node id="-11336" x="8802.51" y="5014.28" type="priority"/>
    <node id="-11352" x="6240.88" y="4604.65" type="priority"/>
    <node id="-1136" x="8554.87" y="5687.12" type="priority"/>
    <node id="-11360" x="13519.44" y="9546.03" type="priority"/>
    <node id="-11420" x="7777.88" y="5330.71" type="priority"/>
    <node id="-11432" x="7840.26" y="5184.99" type="priority"/>
    <node id="-1144" x="3054.08" y="8250.59" type="priority"/>
    <node id="-11474" x="5733.82" y="6262.30" type="priority"/>
    <node id="-11478" x="8064.68" y="4254.25" type="priority"/>
    <node id="-11482" x="10183.67" y="8066.39" type="priority"/>
    <node id="-11514" x="1369.68" y="7234.21" type="traffic_light" tl="-11514" tlType="actuated"/>
    <node id="-11534" x="4654.48" y="5794.57" type="priority"/>
    <node id="-11536" x="9555.35" y="2694.45" type="dead_end"/>
    <node id="-11546" x="8131.26" y="7028.47" type="dead_end"/>
    <node id="-11548" x="1797.92" y="5695.92" type="priority"/>
    <node id="-11552" x="8843.50" y="8068.27" type="traffic_light" tl="-11552" tlType="actuated"/>
    <node id="-11556" x="5367.39" y="5837.16" type="priority"/>
    <node id="-11586" x="7125.18" y="7451.25" type="priority"/>
    <node id="-11602" x="8769.09" y="6937.39" type="priority"/>
    <node id="-11616" x="5593.17" y="7126.59" type="priority"/>
    <node id="-11618" x="8755.08" y="1941.46" type="priority"/>
    <node id="-11622" x="7364.13" y="5579.82" type="priority"/>
    <node id="-11632" x="5920.22" y="6660.34" type="traffic_light" tl="-11632" tlType="actuated"/>
    <node id="-11660" x="4803.40" y="7501.51" type="priority"/>
    <node id="-11702" x="7479.20" y="9139.77" type="priority"/>
    <node id="-11714" x="8166.36" y="7277.65" type="priority"/>
    <node id="-11718" x="8131.67" y="4021.18" type="priority"/>
    <node id="-1172" x="6779.44" y="8506.14" type="priority"/>
    <node id="-11722" x="7227.82" y="5877.35" type="priority"/>
    <node id="-11730" x="6610.68" y="8166.46" type="priority"/>
    <node id="-11754" x="4590.25" y="6125.12" type="traffic_light" tl="-11754" tlType="actuated"/>
    <node id="-11786" x="7339.92" y="3258.02" type="priority"/>
    <node id="-11788" x="9585.74" y="9165.73" type="priority"/>
    <node id="-11792" x="4595.85" y="8003.67" type="priority"/>
    <node id="-11808" x="8156.61" y="6253.57" type="priority"/>
    <node id="-11814" x="9502.59" y="8267.31" type="priority"/>
    <node id="-11818" x="5803.19" y="3288.80" type="priority"/>
    <node id="-11830" x="10349.87" y="8061.61" type="priority"/>
    <node id="-11842" x="7934.89" y="5020.98" type="priority"/>
    <node id="-11848" x="4529.94" y="6268.14" type="priority"/>
    <node id="-11872" x="1293.58" y="6828.88" type="priority"/>
    <node id="-11876" x="8111.45" y="5115.47" type="priority"/>
    <node id="-11886" x="7264.88" y="5968.11" type="priority"/>
    <node id="-11912" x="7622.73" y="10297.76" type="dead_end"/>
    <node id="-11920" x="6256.95" y="7826.18" type="priority"/>
    <node id="-11950" x="5328.15" y="5810.89" type="priority"/>
    <node id="-11954" x="8988.08" y="10296.51" type="dead_end"/>
    <node id="-11956" x="6784.98" y="8475.25" type="priority"/>
    <node id="-11958" x="5104.46" y="7972.55" type="dead_end"/>
    <node id="-11984" x="7517.56" y="9663.14" type="dead_end"/>
    <node id="-11992" x="10246.46" y="7998.70" type="priority"/>
    <node id="-12" x="7880.82" y="7781.51" type="traffic_light" tl="-12" tlType="actuated"/>
    <node id="-1200" x="4910.56" y="7818.79" type="priority"/>
    <node id="-12018" x="4365.82" y="5743.38" type="priority"/>
    <node id="-12020" x="10345.60" y="4449.24" type="dead_end"/>
    <node id="-12034" x="10071.36" y="8991.95" type="priority"/>
    <node id="-12044" x="11015.40" y="9007.12" type="dead_end"/>
    <node id="-12056" x="5556.64" y="5346.84" type="priority"/>
    <node id="-12058" x="4636.81" y="5782.38" type="priority"/>
    <node id="-12064" x="7349.52" y="8872.17" type="traffic_light" tl="-12064" tlType="actuated"/>
    <node id="-12084" x="6230.08" y="5108.31" type="traffic_light" tl="-12084" tlType="actuated"/>
    <node id="-12094" x="2088.39" y="7816.12" type="priority"/>
    <node id="-12112" x="6531.47" y="6125.12" type="traffic_light" tl="-12112" tlType="actuated"/>
    <node id="-12130" x="8446.29" y="2458.20" type="priority"/>
    <node id="-12154" x="7724.54" y="5573.17" type="priority"/>
    <node id="-12164" x="12114.09" y="8572.61" type="priority"/>
    <node id="-1218" x="4919.43" y="7788.01" type="priority"/>
    <node id="-12180" x="8006.00" y="4145.65" type="priority"/>
    <node id="-12184" x="7730.10" y="10327.51" type="priority"/>
    <node id="-12186" x="1430.46" y="7429.81" type="priority"/>
    <node id="-12196" x="9817.15" y="4116.50" type="priority"/>
    <node id="-12200" x="8649.89" y="8887.61" type="priority"/>
    <node id="-12214" x="5527.53" y="6651.60" type="priority"/>
    <node id="-12222" x="6940.92" y="7806.57" type="priority"/>
    <node id="-12242" x="10319.19" y="3928.43" type="dead_end"/>
    <node id="-12256" x="1159.40" y="7154.02" type="priority"/>
    <node id="-12260" x="7221.90" y="7930.25" type="dead_end"/>
    <node id="-1228" x="6646.25" y="9010.91" type="priority"/>
    <node id="-12294" x="8531.93" y="2424.19" type="priority"/>
    <node id="-1230" x="8261.37" y="4495.20" type="priority"/>
    <node id="-1232" x="2873.68" y="7928.65" type="priority"/>
    <node id="-12330" x="8039.51" y="9909.69" type="dead_end"/>
    <node id="-12332" x="6925.25" y="8016.30" type="priority"/>
    <node id="-12364" x="8095.41" y="6286.65" type="priority"/>
    <node id="-12374" x="5083.92" y="6902.97" type="priority"/>
    <node id="-12376" x="7541.21" y="10259.13" type="dead_end"/>
    <node id="-12380" x="9331.62" y="1767.11" type="priority"/>
    <node id="-12400" x="3647.83" y="6412.37" type="priority"/>
    <node id="-12408" x="6365.72" y="5735.35" type="traffic_light" tl="-12408" tlType="actuated"/>
    <node id="-12430" x="10106.82" y="8953.02" type="priority"/>
    <node id="-12458" x="8667.26" y="4902.00" type="priority"/>
    <node id="-1252" x="8514.20" y="2074.55" type="priority"/>
    <node id="-12526" x="3480.51" y="8597.27" type="priority"/>
    <node id="-12582" x="6204.52" y="4954.72" type="traffic_light" tl="-12582" tlType="actuated"/>
    <node id="-12594" x="10339.97" y="7799.84" type="priority"/>
    <node id="-12612" x="9611.46" y="9192.67" type="priority"/>
    <node id="-12618" x="1451.00" y="8167.41" type="priority"/>
    <node id="-12622" x="6851.55" y="5924.39" type="priority"/>
    <node id="-12624" x="6649.83" y="8952.98" type="priority"/>
    <node id="-12666" x="1560.83" y="7161.06" type="priority"/>
    <node id="-12678" x="6326.88" y="7881.35" type="traffic_light" tl="-12678" tlType="actuated"/>
    <node id="-12692" x="7369.02" y="8911.38" type="priority"/>
    <node id="-1270" x="1342.11" y="7327.37" type="priority"/>
    <node id="-12726" x="7032.28" y="3423.03" type="priority"/>
    <node id="-12734" x="10314.46" y="9062.72" type="priority"/>
    <node id="-12752" x="2142.13" y="7173.32" type="priority"/>
    <node id="-12772" x="4968.69" y="6050.14" type="priority"/>
    <node id="-128" x="5690.53" y="8196.86" type="priority"/>
    <node id="-12800" x="10729.60" y="8939.59" type="traffic_light" tl="-12800" tlType="actuated"/>
    <node id="-12818" x="8010.81" y="3876.39" type="priority"/>
    <node id="-12840" x="7078.14" y="6828.75" type="priority"/>
    <node id="-12858" x="5998.04" y="7274.94" type="dead_end"/>
    <node id="-12878" x="6941.98" y="4853.39" type="priority"/>
    <node id="-12904" x="5534.55" y="6704.99" type="priority"/>
    <node id="-12922" x="9935.60" y="9418.43" type="priority"/>
    <node id="-12936" x="3719.79" y="6885.40" type="priority"/>
    <node id="-12958" x="8228.09" y="7483.37" type="priority"/>
    <node id="-12962" x="4722.76" y="6072.42" type="priority"/>
    <node id="-12982" x="5562.25" y="3460.10" type="dead_end"/>
    <node id="-12994" x="8670.58" y="3352.02" type="priority"/>
    <node id="-13000" x="7920.94" y="9398.58" type="priority"/>
    <node id="-13014" x="3432.71" y="8309.78" type="priority"/>
    <node id="-1304" x="3454.45" y="6744.05" type="priority"/>
    <node id="-13054" x="7622.29" y="6956.31" type="dead_end"/>
    <node id="-1306" x="3935.95" y="5610.55" type="dead_end"/>
    <node id="-13062" x="7327.04" y="3296.95" type="priority"/>
    <node id="-13132" x="4889.99" y="7750.40" type="priority"/>
    <node id="-13134" x="1292.29" y="6773.83" type="priority"/>
    <node id="-13188" x="1471.91" y="7014.10" type="priority"/>
    <node id="-13226" x="10467.02" y="9116.80" type="priority"/>
    <node id="-13232" x="1361.76" y="7634.10" type="traffic_light" tl="-13232" tlType="actuated"/>
    <node id="-13248" x="7945.45" y="5216.95" type="priority"/>
    <node id="-13258" x="9451.72" y="7526.62" type="priority"/>
    <node id="-13272" x="8974.34" y="7773.66" type="dead_end"/>
    <node id="-13298" x="7025.95" y="5802.90" type="priority"/>
    <node id="-13310" x="9291.72" y="8105.83" type="priority"/>
    <node id="-13314" x="7211.06" y="7233.50" type="priority"/>
    <node id="-1332" x="6889.99" y="5922.77" type="traffic_light" tl="-1332" tlType="actuated"/>
    <node id="-13322" x="9207.44" y="7518.23" type="priority"/>
    <node id="-13324" x="2479.94" y="7778.92" type="priority"/>
    <node id="-13330" x="7949.23" y="3319.47" type="dead_end"/>
    <node id="-13338" x="6707.98" y="9044.09" type="dead_end"/>
    <node id="-13350" x="7517.94" y="6074.09" type="priority"/>
    <node id="-13372" x="8670.09" y="2484.16" type="priority"/>
    <node id="-1338" x="10633.85" y="3844.20" type="priority"/>
    <node id="-13390" x="7031.96" y="8302.15" type="priority"/>
    <node id="-13398" x="3191.58" y="7735.42" type="priority"/>
    <node id="-13406" x="5401.03" y="7084.61" type="priority"/>
    <node id="-13430" x="6510.82" y="4952.35" type="priority"/>
    <node id="-13432" x="5639.77" y="7341.66" type="priority"/>
    <node id="-13434" x="4349.90" y="8183.71" type="priority"/>
    <node id="-13438" x="4917.53" y="6597.10" type="priority"/>
    <node id="-13454" x="8426.04" y="6242.63" type="dead_end"/>
    <node id="-13460" x="1147.38" y="7309.93" type="priority"/>
    <node id="-13462" x="7990.44" y="8571.63" type="priority"/>
    <node id="-13464" x="8509.26" y="8210.50" type="priority"/>
    <node id="-13472" x="10356.39" y="7691.53" type="priority"/>
    <node id="-13478" x="6728.78" y="8396.98" type="traffic_light" tl="-13478" tlType="actuated"/>
    <node id="-13484" x="5638.58" y="5114.85" type="priority"/>
    <node id="-13490" x="8941.67" y="5661.57" type="dead_end"/>
    <node id="-13500" x="3319.83" y="8317.75" type="priority"/>
    <node id="-13502" x="9573.72" y="8330.82" type="priority"/>
    <node id="-13552" x="6936.53" y="6287.96" type="dead_end"/>
    <node id="-136" x="10756.35" y="7400.96" type="priority"/>
    <node id="-13602" x="6168.34" y="6712.87" type="traffic_light" tl="-13602" tlType="actuated"/>
    <node id="-13608" x="9283.20" y="8941.62" type="traffic_light" tl="-13608" tlType="actuated"/>
    <node id="-13610" x="2649.33" y="9533.58" type="priority"/>
    <node id="-13628" x="5631.88" y="7460.19" type="traffic_light" tl="-13628" tlType="actuated"/>
    <node id="-13652" x="9905.03" y="9334.17" type="priority"/>
    <node id="-13658" x="5939.81" y="7057.28" type="priority"/>
    <node id="-1366" x="7406.28" y="8025.55" type="priority" shape="7411.64,8032.52 7418.43,8033.14 7423.53,8028.27 7419.98,8015.30 7412.13,8017.88 7405.69,8019.02 7405.60,8032.27 7411.64,8032.52"/>
    <node id="-13664" x="4844.94" y="8005.06" type="priority"/>
    <node id="-13668" x="8005.95" y="9519.55" type="priority"/>
    <node id="-13682" x="3388.74" y="6359.32" type="priority"/>
    <node id="-13684" x="7545.89" y="5394.17" type="priority"/>
    <node id="-13686" x="7047.41" y="8114.41" type="priority"/>
    <node id="-13696" x="8157.70" y="3938.74" type="priority"/>
    <node id="-13708" x="5818.85" y="8657.22" type="dead_end"/>
    <node id="-13722" x="9129.39" y="2700.35" type="traffic_light" tl="-13722" tlType="actuated"/>
    <node id="-1376" x="10727.91" y="7952.36" type="priority"/>
    <node id="-13788" x="2093.75" y="7764.42" type="priority"/>
    <node id="-13794" x="1855.93" y="7214.39" type="priority"/>
    <node id="-138" x="10586.68" y="8981.99" type="priority"/>
    <node id="-13838" x="6819.49" y="3458.91" type="priority"/>
    <node id="-13840" x="3354.67" y="7304.94" type="priority"/>
    <node id="-13846" x="6650.25" y="7731.63" type="priority"/>
    <node id="-13848" x="1144.33" y="6476.19" type="priority"/>
    <node id="-13860" x="10183.68" y="8892.88" type="priority"/>
    <node id="-13862" x="7922.88" y="3792.89" type="priority"/>
    <node id="-13880" x="10413.95" y="8827.75" type="priority"/>
    <node id="-13888" x="7455.72" y="8001.09" type="priority"/>
    <node id="-13920" x="8020.03" y="4387.45" type="priority"/>
    <node id="-13922" x="7279.94" y="3918.99" type="priority" shape="7268.44,3915.69 7279.90,3905.28 7302.38,3930.22 7309.25,3942.44 7299.96,3951.41 7268.44,3915.69"/>
    <node id="-13926" x="6119.86" y="6162.97" type="priority"/>
    <node id="-13928" x="7478.37" y="8632.82" type="priority"/>
    <node id="-13942" x="3151.85" y="7547.05" type="priority"/>
    <node id="-13968" x="6650.06" y="7554.76" type="traffic_light" tl="-13968" tlType="actuated"/>
    <node id="-13972" x="6406.65" y="8629.58" type="dead_end"/>
    <node id="-13992" x="3865.99" y="2934.06" type="dead_end"/>
    <node id="-13998" x="4421.93" y="3864.05" type="priority"/>
    <node id="-14020" x="1758.24" y="6564.58" type="priority"/>
    <node id="-14022" x="10008.69" y="8833.49" type="priority"/>
    <node id="-14026" x="7171.06" y="8842.18" type="priority"/>
    <node id="-14030" x="6141.09" y="3903.40" type="priority"/>
    <node id="-14058" x="8297.48" y="9970.39" type="priority"/>
    <node id="-14074" x="8143.94" y="2730.28" type="priority"/>
    <node id="-14080" x="5044.59" y="4182.88" type="priority"/>
    <node id="-14086" x="7194.57" y="6828.62" type="priority"/>
    <node id="-14092" x="8340.29" y="9638.64" type="traffic_light" tl="-14092" tlType="actuated"/>
    <node id="-14104" x="5820.33" y="8591.46" type="priority"/>
    <node id="-14114" x="6050.18" y="7199.02" type="priority"/>
    <node id="-14142" x="909.08" y="6822.21" type="priority"/>
    <node id="-14146" x="9956.84" y="6726.90" type="priority"/>
    <node id="-14148" x="9989.68" y="10636.91" type="traffic_light" tl="-14148" tlType="actuated"/>
    <node id="-14160" x="10001.68" y="9790.02" type="priority"/>
    <node id="-14174" x="7819.71" y="5674.31" type="priority"/>
    <node id="-14184" x="3001.46" y="7306.47" type="priority"/>
    <node id="-14254" x="10605.83" y="7835.04" type="priority"/>
    <node id="-1426" x="8113.24" y="6529.11" type="priority"/>
    <node id="-14272" x="7083.19" y="3272.23" type="priority"/>
    <node id="-14278" x="8655.76" y="2096.64" type="priority"/>
    <node id="-14290" x="8090.03" y="7135.88" type="dead_end"/>
    <node id="-14304" x="5060.94" y="4189.13" type="priority"/>
    <node id="-14316" x="1678.68" y="7562.68" type="priority"/>
    <node id="-14320" x="8753.38" y="5691.47" type="dead_end"/>
    <node id="-14334" x="8505.55" y="8997.01" type="dead_end"/>
    <node id="-14348" x="7249.96" y="5007.92" type="dead_end"/>
    <node id="-1436" x="11380.24" y="9882.83" type="dead_end"/>
    <node id="-14370" x="9668.03" y="9343.49" type="priority"/>
    <node id="-14376" x="6426.17" y="7107.08" type="priority"/>
    <node id="-14384" x="8126.55" y="8234.31" type="traffic_light" tl="-14384" tlType="actuated"/>
    <node id="-14388" x="7407.52" y="6236.51" type="priority"/>
    <node id="-144" x="8385.72" y="9959.81" type="dead_end"/>
    <node id="-14404" x="6670.35" y="6718.77" type="dead_end"/>
    <node id="-14412" x="8253.79" y="8804.68" type="priority"/>
    <node id="-14416" x="8336.88" y="9699.69" type="priority"/>
    <node id="-14448" x="7146.91" y="3648.12" type="priority"/>
    <node id="-14450" x="7717.15" y="8837.73" type="priority"/>
    <node id="-14456" x="7354.24" y="4056.81" type="priority"/>
    <node id="-14488" x="7910.74" y="3834.34" type="priority"/>
    <node id="-14492" x="8606.69" y="8268.01" type="dead_end"/>
    <node id="-14500" x="5446.91" y="6928.87" type="priority"/>
    <node id="-14502" x="7116.27" y="3785.55" type="priority"/>
    <node id="-14508" x="4824.12" y="7491.73" type="priority"/>
    <node id="-14512" x="5493.18" y="6876.77" type="priority"/>
    <node id="-14514" x="8328.28" y="3332.00" type="priority"/>
    <node id="-14526" x="840.82" y="7122.00" type="priority"/>
    <node id="-14550" x="8498.94" y="2653.86" type="priority"/>
    <node id="-14564" x="8889.57" y="7074.56" type="priority"/>
    <node id="-1458" x="9417.98" y="1593.69" type="traffic_light" tl="-1458" tlType="actuated" shape="9434.49,1584.29 9417.16,1574.24 9405.14,1579.55 9403.94,1600.14 9421.41,1609.25 9434.49,1584.29"/>
    <node id="-14588" x="4150.85" y="7277.67" type="priority"/>
    <node id="-14592" x="8351.88" y="4130.79" type="dead_end"/>
    <node id="-146" x="7218.55" y="5804.13" type="priority"/>
    <node id="-14600" x="3443.86" y="7276.10" type="priority"/>
    <node id="-1462" x="9708.74" y="3831.92" type="priority"/>
    <node id="-14622" x="3250.97" y="7363.10" type="priority"/>
    <node id="-14656" x="2819.80" y="7823.30" type="priority"/>
    <node id="-1466" x="5843.54" y="6316.90" type="priority"/>
    <node id="-14664" x="5282.41" y="10871.10" type="priority"/>
    <node id="-14672" x="9575.90" y="7589.10" type="priority"/>
    <node id="-14718" x="3217.94" y="8091.07" type="traffic_light" tl="-14718" tlType="actuated"/>
    <node id="-1472" x="8220.71" y="4065.70" type="dead_end"/>
    <node id="-14736" x="7709.79" y="8868.05" type="priority"/>
    <node id="-1474" x="4645.78" y="5762.90" type="priority"/>
    <node id="-14740" x="9129.07" y="1036.60" type="traffic_light" tl="-14740" tlType="actuated"/>
    <node id="-14764" x="9422.82" y="2527.70" type="priority"/>
    <node id="-14780" x="6181.02" y="5968.43" type="priority"/>
    <node id="-14784" x="5611.34" y="7920.36" type="priority"/>
    <node id="-14786" x="5698.06" y="5035.32" type="priority"/>
    <node id="-148" x="8448.98" y="10091.64" type="priority"/>
    <node id="-14818" x="8550.98" y="6114.60" type="priority"/>
    <node id="-14832" x="5396.73" y="4566.50" type="priority"/>
    <node id="-14834" x="9558.21" y="2527.95" type="dead_end"/>
    <node id="-1484" x="7945.35" y="4016.78" type="priority"/>
    <node id="-14844" x="9326.42" y="1188.56" type="priority"/>
    <node id="-14886" x="9869.91" y="9522.47" type="priority"/>
    <node id="-14904" x="6228.31" y="6109.35" type="priority"/>
    <node id="-14906" x="8925.15" y="9058.86" type="priority"/>
    <node id="-1496" x="6610.78" y="3818.44" type="priority"/>
    <node id="-14966" x="3412.79" y="7579.06" type="priority"/>
    <node id="-14976" x="2094.19" y="6864.78" type="traffic_light" tl="-14976" tlType="actuated"/>
    <node id="-14978" x="8424.79" y="2729.76" type="priority"/>
    <node id="-15004" x="5472.52" y="6136.99" type="priority"/>
    <node id="-15006" x="7376.83" y="7468.52" type="priority"/>
    <node id="-15010" x="6912.09" y="7780.21" type="traffic_light" tl="-15010" tlType="actuated"/>
    <node id="-1502" x="8545.08" y="5252.41" type="priority"/>
    <node id="-15034" x="8581.31" y="5523.34" type="priority"/>
    <node id="-15036" x="6358.72" y="5912.55" type="priority"/>
    <node id="-15052" x="8966.51" y="7352.43" type="priority"/>
    <node id="-15064" x="8329.40" y="7288.80" type="dead_end"/>
    <node id="-15072" x="7220.89" y="7525.29" type="priority" shape="7239.03,7581.46 7232.57,7534.53 7230.60,7532.00 7210.91,7531.60 7207.97,7562.67 7208.19,7565.71 7208.28,7568.89 7209.23,7586.00 7239.03,7581.46"/>
    <node id="-15074" x="9612.53" y="2212.14" type="priority"/>
    <node id="-15090" x="6351.73" y="5020.10" type="priority"/>
    <node id="-15116" x="4438.30" y="3642.57" type="priority"/>
    <node id="-15120" x="8414.14" y="5401.84" type="priority"/>
    <node id="-15130" x="10744.99" y="7143.32" type="priority"/>
    <node id="-1514" x="9711.84" y="3843.69" type="priority"/>
    <node id="-15150" x="5176.96" y="7770.94" type="priority"/>