<?xml version="1.0" encoding="UTF-8"?>

<!-- generated on 2023-06-22 00:27:46.752434 by osmWebWizard.py v1_15_0+0002-e6790248698
<configuration>
    <allow-fringe.min-length value="1000.0"/>
    <end value="4000"/>
    <fringe-factor value="5"/>
    <fringe-start-attributes value="departSpeed=&quot;max&quot;"/>
    <insertion-density value="12.0"/>
    <lanes value="True"/>
    <min-distance.fringe value="10.0"/>
    <min-distance value="300.0"/>
    <net-file value="C:\Users\hisha\Sumo\2023-06-22-00-26-17\osm.net.xml.gz"/>
    <remove-loops value="True"/>
    <route-file value="C:\Users\hisha\Sumo\2023-06-22-00-26-17\osm.passenger.rou.xml"/>
    <trip-attributes value="departLane=&quot;best&quot;"/>
    <output-trip-file value="C:\Users\hisha\Sumo\2023-06-22-00-26-17\osm.passenger.trips.xml"/>
    <prefix value="veh"/>
    <validate value="True"/>
    <vehicle-class value="passenger"/>
</configuration>
-->

<!-- generated on 2023-06-22 00:27:31 by Eclipse SUMO duarouter Version 1.15.0
<configuration xmlns:xsi="http://www.w3.org/2001/XMLSchema-instance" xsi:noNamespaceSchemaLocation="http://sumo.dlr.de/xsd/duarouterConfiguration.xsd">

    <input>
        <net-file value="C:\Users\hisha\Sumo\2023-06-22-00-26-17\osm.net.xml.gz"/>
        <route-files value="C:\Users\hisha\Sumo\2023-06-22-00-26-17\osm.passenger.trips.xml"/>
    </input>

    <output>
        <output-file value="C:\Users\hisha\Sumo\2023-06-22-00-26-17\osm.passenger.trips.xml.tmp"/>
        <alternatives-output value="NUL"/>
        <write-trips value="true"/>
    </output>

    <processing>
        <remove-loops value="true"/>
    </processing>

    <time>
        <begin value="0"/>
        <end value="4000"/>
    </time>

    <report>
        <no-warnings value="true"/>
        <ignore-errors value="true"/>
        <no-step-log value="true"/>
    </report>

</configuration>
-->

<routes xmlns:xsi="http://www.w3.org/2001/XMLSchema-instance" xsi:noNamespaceSchemaLocation="http://sumo.dlr.de/xsd/routes_file.xsd">
    <vType id="veh_passenger" vClass="passenger"/>
    <trip id="veh0" type="veh_passenger" depart="0.00" departLane="best" from="520836735#5" to="-34872996#2"/>
    <trip id="veh1" type="veh_passenger" depart="1.36" departLane="best" departSpeed="max" from="-745343906" to="-745343932"/>
    <trip id="veh2" type="veh_passenger" depart="2.72" departLane="best" from="1174717060#8" to="738263286#5"/>
    <trip id="veh3" type="veh_passenger" depart="4.09" departLane="best" departSpeed="max" from="-749251073" to="-42057817#0"/>
    <trip id="veh4" type="veh_passenger" depart="5.45" departLane="best" from="-744928083#6" to="477723395#1"/>
    <trip id="veh5" type="veh_passenger" depart="6.81" departLane="best" from="-392687095#3" to="-745343856#0"/>
    <trip id="veh6" type="veh_passenger" depart="8.17" departLane="best" departSpeed="max" from="-744928083#7" to="571664581#4"/>
    <trip id="veh7" type="veh_passenger" depart="9.54" departLane="best" from="744568933" to="744568933"/>
    <trip id="veh8" type="veh_passenger" depart="10.90" departLane="best" departSpeed="max" from="744349937#0" to="742969461"/>
    <trip id="veh9" type="veh_passenger" depart="12.26" departLane="best" departSpeed="max" from="-747039945" to="-744349863"/>
    <trip id="veh10" type="veh_passenger" depart="13.62" departLane="best" departSpeed="max" from="749162812#0" to="-97446197#2"/>
    <trip id="veh11" type="veh_passenger" depart="14.98" departLane="best" from="-556239203#0" to="-556239203#0"/>
    <trip id="veh12" type="veh_passenger" depart="16.35" departLane="best" from="745343881" to="589675407#9"/>
    <trip id="veh13" type="veh_passenger" depart="17.71" departLane="best" from="744349941#1" to="744568943#2"/>
    <trip id="veh14" type="veh_passenger" depart="19.07" departLane="best" from="36143883#15" to="749251109#0"/>
    <trip id="veh15" type="veh_passenger" depart="20.43" departLane="best" from="-747810916#11" to="556239206#0"/>
    <trip id="veh16" type="veh_passenger" depart="21.80" departLane="best" from="745343830#4" to="673919378#4"/>
    <trip id="veh17" type="veh_passenger" depart="23.16" departLane="best" from="745343919#4" to="561030580#4-AddedOffRampEdge"/>
    <trip id="veh18" type="veh_passenger" depart="24.52" departLane="best" from="-579791811#1" to="-42344523#1"/>
    <trip id="veh19" type="veh_passenger" depart="25.88" departLane="best" departSpeed="max" from="-745343821" to="-747810942"/>
    <trip id="veh20" type="veh_passenger" depart="27.24" departLane="best" from="-554480555#3" to="-745343973#6"/>
    <trip id="veh21" type="veh_passenger" depart="28.61" departLane="best" from="520836735#17" to="178290174#4"/>
    <trip id="veh22" type="veh_passenger" depart="29.97" departLane="best" from="-747414907#3" to="-745343897#1"/>
    <trip id="veh23" type="veh_passenger" depart="31.33" departLane="best" from="-745343888" to="747861391"/>
    <trip id="veh24" type="veh_passenger" depart="32.69" departLane="best" from="540114787#2" to="599453178#4"/>
    <trip id="veh25" type="veh_passenger" depart="34.06" departLane="best" departSpeed="max" from="-741680990#1" to="744568943#1"/>
    <trip id="veh26" type="veh_passenger" depart="35.42" departLane="best" departSpeed="max" from="-740770911#4" to="178936293#2"/>
    <trip id="veh27" type="veh_passenger" depart="36.78" departLane="best" departSpeed="max" from="749379460" to="-693708502#8"/>
    <trip id="veh28" type="veh_passenger" depart="38.14" departLane="best" from="398514976#2" to="740770916"/>
    <trip id="veh29" type="veh_passenger" depart="39.50" departLane="best" departSpeed="max" from="-745343823" to="-42298003#13"/>
    <trip id="veh30" type="veh_passenger" depart="40.87" departLane="best" departSpeed="max" from="-745343967" to="-747519046#0"/>
    <trip id="veh31" type="veh_passenger" depart="42.23" departLane="best" departSpeed="max" from="-744603801" to="749147724#6"/>
    <trip id="veh32" type="veh_passenger" depart="43.59" departLane="best" from="745343973#8" to="-749251067"/>
    <trip id="veh33" type="veh_passenger" depart="44.95" departLane="best" from="-554493575#0" to="26785625#1"/>
    <trip id="veh34" type="veh_passenger" depart="46.31" departLane="best" from="747414899" to="42299112#8"/>
    <trip id="veh35" type="veh_passenger" depart="47.68" departLane="best" departSpeed="max" from="-745343885#1" to="-747414861#0"/>
    <trip id="veh36" type="veh_passenger" depart="49.04" departLane="best" from="520836735#12" to="747414907#3"/>
    <trip id="veh37" type="veh_passenger" depart="50.40" departLane="best" departSpeed="max" from="42343886#0" to="747414890"/>
    <trip id="veh38" type="veh_passenger" depart="51.76" departLane="best" departSpeed="max" from="-749147704" to="-745343919#5"/>
    <trip id="veh39" type="veh_passenger" depart="53.13" departLane="best" from="97560754#1" to="477727631#2"/>
    <trip id="veh40" type="veh_passenger" depart="54.49" departLane="best" from="-556043938#11" to="-42344579#0"/>
    <trip id="veh41" type="veh_passenger" depart="55.85" departLane="best" departSpeed="max" from="-579791809" to="677796059#4"/>
    <trip id="veh42" type="veh_passenger" depart="57.21" departLane="best" departSpeed="max" from="742969463#0" to="36143884#4"/>
    <trip id="veh43" type="veh_passenger" depart="58.57" departLane="best" from="-477727617#2" to="178936306#13"/>
    <trip id="veh44" type="veh_passenger" depart="59.94" departLane="best" from="97446197#1" to="530294298#7"/>
    <trip id="veh45" type="veh_passenger" depart="61.30" departLane="best" departSpeed="max" from="749251068" to="-746408053#1"/>
    <trip id="veh46" type="veh_passenger" depart="62.66" departLane="best" from="178290172#0" to="744349938"/>
    <trip id="veh47" type="veh_passenger" depart="64.02" departLane="best" from="561030566#2" to="554480559"/>
    <trip id="veh48" type="veh_passenger" depart="65.39" departLane="best" from="-745343888" to="693708504#2"/>
    <trip id="veh49" type="veh_passenger" depart="66.75" departLane="best" from="-579791811#3" to="392687095#0"/>
    <trip id="veh50" type="veh_passenger" depart="68.11" departLane="best" departSpeed="max" from="-97446238#1" to="-749210413"/>
    <trip id="veh51" type="veh_passenger" depart="69.47" departLane="best" from="745343973#5" to="-747414911"/>
    <trip id="veh52" type="veh_passenger" depart="70.83" departLane="best" from="178936306#9" to="744928083#6"/>
    <trip id="veh53" type="veh_passenger" depart="72.20" departLane="best" from="747414893#0" to="746963834"/>
    <trip id="veh54" type="veh_passenger" depart="73.56" departLane="best" from="745343942#4" to="693708502#1"/>
    <trip id="veh55" type="veh_passenger" depart="74.92" departLane="best" from="434702098#7" to="-741609985"/>
    <trip id="veh56" type="veh_passenger" depart="76.28" departLane="best" from="694324332#13" to="554493575#1"/>
    <trip id="veh57" type="veh_passenger" depart="77.65" departLane="best" from="-738266719#11" to="540114787#0"/>
    <trip id="veh58" type="veh_passenger" depart="79.01" departLane="best" from="1174717062#1" to="-749251101#2"/>
    <trip id="veh59" type="veh_passenger" depart="80.37" departLane="best" departSpeed="max" from="746404496#0" to="745343952"/>
    <trip id="veh60" type="veh_passenger" depart="81.73" departLane="best" departSpeed="max" from="746310622#0" to="749162811#1"/>
    <trip id="veh61" type="veh_passenger" depart="83.09" departLane="best" from="555228252#18" to="434702098#22"/>
    <trip id="veh62" type="veh_passenger" depart="84.46" departLane="best" from="434702098#41" to="-693708508#1"/>
    <trip id="veh63" type="veh_passenger" depart="85.82" departLane="best" departSpeed="max" from="556043938#9" to="556043938#9"/>
    <trip id="veh64" type="veh_passenger" depart="87.18" departLane="best" departSpeed="max" from="-749251081" to="-745343901#0"/>
    <trip id="veh65" type="veh_passenger" depart="88.54" departLane="best" from="36143884#13" to="744568943#2"/>
    <trip id="veh66" type="veh_passenger" depart="89.91" departLane="best" departSpeed="max" from="-744568936" to="-749210416#0"/>
    <trip id="veh67" type="veh_passenger" depart="91.27" departLane="best" from="97445628#2" to="-693717209#10"/>
    <trip id="veh68" type="veh_passenger" depart="92.63" departLane="best" departSpeed="max" from="-749251114" to="520836735#17"/>
    <trip id="veh69" type="veh_passenger" depart="93.99" departLane="best" from="677789316#0" to="-745343942#2"/>
    <trip id="veh70" type="veh_passenger" depart="95.35" departLane="best" from="-746997777#1" to="571664581#18"/>
    <trip id="veh71" type="veh_passenger" depart="96.72" departLane="best" from="-745343824#10" to="-745343921#0"/>
    <trip id="veh72" type="veh_passenger" depart="98.08" departLane="best" from="-477751596#0" to="689273330#5"/>
    <trip id="veh73" type="veh_passenger" depart="99.44" departLane="best" departSpeed="max" from="-745343823" to="747414902"/>
    <trip id="veh74" type="veh_passenger" depart="100.80" departLane="best" from="-745343915#2" to="-477751596#5"/>
    <trip id="veh75" type="veh_passenger" depart="102.17" departLane="best" from="-745343834#0" to="727835340#7"/>
    <trip id="veh76" type="veh_passenger" depart="103.53" departLane="best" departSpeed="max" from="-744678300" to="-693715069#0"/>
    <trip id="veh77" type="veh_passenger" depart="104.89" departLane="best" departSpeed="max" from="747810930" to="561030577#2"/>
    <trip id="veh78" type="veh_passenger" depart="106.25" departLane="best" from="745343869#1" to="745343869#1"/>
    <trip id="veh79" type="veh_passenger" depart="107.61" departLane="best" from="744349942#1" to="-745343836#0"/>
    <trip id="veh80" type="veh_passenger" depart="108.98" departLane="best" departSpeed="max" from="-563570215#1" to="387293217#27"/>
    <trip id="veh81" type="veh_passenger" depart="110.34" departLane="best" departSpeed="max" from="-749251081" to="42317845#28"/>
    <trip id="veh82" type="veh_passenger" depart="111.70" departLane="best" from="673919378#0" to="-738263284"/>
    <trip id="veh83" type="veh_passenger" depart="113.06" departLane="best" from="749251110#11" to="-571179220#4"/>
    <trip id="veh84" type="veh_passenger" depart="114.42" departLane="best" from="749147721" to="-97560776#2"/>
    <trip id="veh85" type="veh_passenger" depart="115.79" departLane="best" from="745343919#4" to="-747414863#0"/>
    <trip id="veh86" type="veh_passenger" depart="117.15" departLane="best" from="-744349916" to="42298003#7"/>
    <trip id="veh87" type="veh_passenger" depart="118.51" departLane="best" departSpeed="max" from="-749251073" to="-747810927"/>
    <trip id="veh88" type="veh_passenger" depart="119.87" departLane="best" from="-745343853#5" to="-747810929"/>
    <trip id="veh89" type="veh_passenger" depart="121.24" departLane="best" departSpeed="max" from="-749379465" to="746408054"/>
    <trip id="veh90" type="veh_passenger" depart="122.60" departLane="best" from="387293217#7" to="42381317#0"/>
    <trip id="veh91" type="veh_passenger" depart="123.96" departLane="best" from="-97560776#1" to="745343957"/>
    <trip id="veh92" type="veh_passenger" depart="125.32" departLane="best" from="745343886#1" to="744349941#1"/>
    <trip id="veh93" type="veh_passenger" depart="126.68" departLane="best" from="178290183#1" to="-745343904"/>
    <trip id="veh94" type="veh_passenger" depart="128.05" departLane="best" from="-749147712#1" to="-477723363#2"/>
    <trip id="veh95" type="veh_passenger" depart="129.41" departLane="best" from="-97560769#3" to="36143884#9"/>
    <trip id="veh96" type="veh_passenger" depart="130.77" departLane="best" departSpeed="max" from="749162812#0" to="97446197#7"/>
    <trip id="veh97" type="veh_passenger" depart="132.13" departLane="best" departSpeed="max" from="398514976#0" to="744349935"/>
    <trip id="veh98" type="veh_passenger" depart="133.50" departLane="best" departSpeed="max" from="-749147718" to="-749147718"/>
    <trip id="veh99" type="veh_passenger" depart="134.86" departLane="best" departSpeed="max" from="749210419" to="563570215#1"/>
    <trip id="veh100" type="veh_passenger" depart="136.22" departLane="best" from="746404496#71" to="744928088"/>
    <trip id="veh101" type="veh_passenger" depart="137.58" departLane="best" from="-477512784#0" to="571179220#5"/>
    <trip id="veh102" type="veh_passenger" depart="138.94" departLane="best" from="178937541#3" to="387293217#62"/>
    <trip id="veh103" type="veh_passenger" depart="140.31" departLane="best" departSpeed="max" from="-738263285#6" to="749251072"/>
    <trip id="veh104" type="veh_passenger" depart="141.67" departLane="best" from="-554480558#0" to="-745343829"/>
    <trip id="veh105" type="veh_passenger" depart="143.03" departLane="best" from="42346782#9" to="738263285#6"/>
    <trip id="veh106" type="veh_passenger" depart="144.39" departLane="best" from="-745343832#0" to="-689273330#4"/>
    <trip id="veh107" type="veh_passenger" depart="145.76" departLane="best" from="42346782#5" to="673919378#5"/>
    <trip id="veh108" type="veh_passenger" depart="147.12" departLane="best" departSpeed="max" from="-749251070" to="571179220#2"/>
    <trip id="veh109" type="veh_passenger" depart="148.48" departLane="best" from="34602796#3" to="747861389"/>
    <trip id="veh110" type="veh_passenger" depart="149.84" departLane="best" departSpeed="max" from="-744568943#2" to="-744349926"/>
    <trip id="veh111" type="veh_passenger" depart="151.20" departLane="best" from="745343834#4" to="26785625#2"/>
    <trip id="veh112" type="veh_passenger" depart="152.57" departLane="best" from="557409316#0" to="749147724#8"/>
    <trip id="veh113" type="veh_passenger" depart="153.93" departLane="best" departSpeed="max" from="-745343968" to="744994911"/>
    <trip id="veh114" type="veh_passenger" depart="155.29" departLane="best" from="-522570794#2" to="42299112#4"/>
    <trip id="veh115" type="veh_passenger" depart="156.65" departLane="best" from="97560769#0" to="97446197#7"/>
    <trip id="veh116" type="veh_passenger" depart="158.02" departLane="best" from="-522570794#8" to="745343903#1"/>
    <trip id="veh117" type="veh_passenger" depart="159.38" departLane="best" from="746404496#10" to="747039947"/>
    <trip id="veh118" type="veh_passenger" depart="160.74" departLane="best" from="-747414907#0" to="-744349883"/>
    <trip id="veh119" type="veh_passenger" depart="162.10" departLane="best" from="745343836#5" to="744349873"/>
    <trip id="veh120" type="veh_passenger" depart="163.46" departLane="best" from="468279500#4" to="751538563#2"/>
    <trip id="veh121" type="veh_passenger" depart="164.83" departLane="best" from="554480558#1" to="-178176467#2"/>
    <trip id="veh122" type="veh_passenger" depart="166.19" departLane="best" from="744568953#4" to="749147724#5"/>
    <trip id="veh123" type="veh_passenger" depart="167.55" departLane="best" from="-556043937#5" to="-749147707#3"/>
    <trip id="veh124" type="veh_passenger" depart="168.91" departLane="best" from="-693708497" to="-677790412#4"/>
    <trip id="veh125" type="veh_passenger" depart="170.28" departLane="best" departSpeed="max" from="-573301750#2" to="556780549#2"/>
    <trip id="veh126" type="veh_passenger" depart="171.64" departLane="best" from="-745343902#1" to="590243913#1"/>
    <trip id="veh127" type="veh_passenger" depart="173.00" departLane="best" from="599453178#21" to="-745343876#0"/>
    <trip id="veh128" type="veh_passenger" depart="174.36" departLane="best" from="-519386897#0" to="-747414912#11"/>
    <trip id="veh129" type="veh_passenger" depart="175.72" departLane="best" from="178290189" to="747414902"/>
    <trip id="veh130" type="veh_passenger" depart="177.09" departLane="best" from="-745343877" to="-557409313#0"/>
    <trip id="veh131" type="veh_passenger" depart="178.45" departLane="best" departSpeed="max" from="-749251081" to="-747810924"/>
    <trip id="veh132" type="veh_passenger" depart="179.81" departLane="best" from="157600132#7" to="745343841#3"/>
    <trip id="veh133" type="veh_passenger" depart="181.17" departLane="best" from="520836735#24" to="-747414906#0"/>
    <trip id="veh134" type="veh_passenger" depart="182.54" departLane="best" from="693297871" to="556239203#5"/>
    <trip id="veh135" type="veh_passenger" depart="183.90" departLane="best" from="-749251097#0" to="-749251097#0"/>
    <trip id="veh136" type="veh_passenger" depart="185.26" departLane="best" from="540114784#3" to="747414862#0"/>
    <trip id="veh137" type="veh_passenger" depart="186.62" departLane="best" from="747414863#11" to="555647465#5"/>
    <trip id="veh138" type="veh_passenger" depart="187.98" departLane="best" from="745343838#1" to="563988071#5"/>
    <trip id="veh139" type="veh_passenger" depart="189.35" departLane="best" from="-693719240#1" to="-693708507"/>
    <trip id="veh140" type="veh_passenger" depart="190.71" departLane="best" departSpeed="max" from="-745343957" to="747414894#0"/>
    <trip id="veh141" type="veh_passenger" depart="192.07" departLane="best" from="744349868#1" to="-746408053#0"/>
    <trip id="veh142" type="veh_passenger" depart="193.43" departLane="best" from="747345168#0" to="-745343898#0"/>
    <trip id="veh143" type="veh_passenger" depart="194.79" departLane="best" from="-738266719#21" to="-747414863#2"/>
    <trip id="veh144" type="veh_passenger" depart="196.16" departLane="best" from="749162809#2" to="-677786687#1"/>
    <trip id="veh145" type="veh_passenger" depart="197.52" departLane="best" departSpeed="max" from="747845514#3" to="747845514#3"/>
    <trip id="veh146" type="veh_passenger" depart="198.88" departLane="best" from="745343928#1" to="749251113"/>
    <trip id="veh147" type="veh_passenger" depart="200.24" departLane="best" departSpeed="max" from="744568940" to="747414857#1"/>
    <trip id="veh148" type="veh_passenger" depart="201.61" departLane="best" from="-392687095#10" to="744603799"/>
    <trip id="veh149" type="veh_passenger" depart="202.97" departLane="best" departSpeed="max" from="-746963833" to="747861381"/>
    <trip id="veh150" type="veh_passenger" depart="204.33" departLane="best" departSpeed="max" from="744349914" to="746408058"/>
    <trip id="veh151" type="veh_passenger" depart="205.69" departLane="best" departSpeed="max" from="744568940" to="-747414915#3"/>
    <trip id="veh152" type="veh_passenger" depart="207.05" departLane="best" from="742013805#5" to="-632177273#0"/>
    <trip id="veh153" type="veh_passenger" depart="208.42" departLane="best" from="745343956#1" to="746404496#5"/>
    <trip id="veh154" type="veh_passenger" depart="209.78" departLane="best" departSpeed="max" from="-744928093#1" to="745343925"/>
    <trip id="veh155" type="veh_passenger" depart="211.14" departLane="best" from="157600129#1" to="-749162819#0"/>
    <trip id="veh156" type="veh_passenger" depart="212.50" departLane="best" from="-744349863" to="-745343955#2"/>
    <trip id="veh157" type="veh_passenger" depart="213.87" departLane="best" from="-745343841#2" to="-745343841#2"/>
    <trip id="veh158" type="veh_passenger" depart="215.23" departLane="best" departSpeed="max" from="-746707469" to="746408058"/>
    <trip id="veh159" type="veh_passenger" depart="216.59" departLane="best" departSpeed="max" from="749210416#0" to="-747810928"/>
    <trip id="veh160" type="veh_passenger" depart="217.95" departLane="best" from="522581333#0" to="27000989#8"/>
    <trip id="veh161" type="veh_passenger" depart="219.31" departLane="best" from="749251105#1" to="554480555#2"/>
    <trip id="veh162" type="veh_passenger" depart="220.68" departLane="best" from="747810935#3" to="677790412#4"/>
    <trip id="veh163" type="veh_passenger" depart="222.04" departLane="best" departSpeed="max" from="749251067" to="744928083#6"/>
    <trip id="veh164" type="veh_passenger" depart="223.40" departLane="best" departSpeed="max" from="-579791807#1" to="387293217#7"/>
    <trip id="veh165" type="veh_passenger" depart="224.76" departLane="best" from="434702098#23" to="-477740578#2"/>
    <trip id="veh166" type="veh_passenger" depart="226.13" departLane="best" from="-747810931#2" to="561030580#2-AddedOffRampEdge"/>
    <trip id="veh167" type="veh_passenger" depart="227.49" departLane="best" from="-745343863" to="744349883"/>
    <trip id="veh168" type="veh_passenger" depart="228.85" departLane="best" from="-157600130#1" to="747810935#2"/>
    <trip id="veh169" type="veh_passenger" depart="230.21" departLane="best" from="36143883#9" to="744349937#2"/>
    <trip id="veh170" type="veh_passenger" depart="231.57" departLane="best" from="-693307171#0" to="-734809767"/>
    <trip id="veh171" type="veh_passenger" depart="232.94" departLane="best" departSpeed="max" from="-747414897" to="477743809#1"/>
    <trip id="veh172" type="veh_passenger" depart="234.30" departLane="best" departSpeed="max" from="556043938#0" to="749251110#9"/>
    <trip id="veh173" type="veh_passenger" depart="235.66" departLane="best" departSpeed="max" from="614225993#0" to="749147729"/>
    <trip id="veh174" type="veh_passenger" depart="237.02" departLane="best" departSpeed="max" from="-745343960" to="34618315#2"/>
    <trip id="veh175" type="veh_passenger" depart="238.39" departLane="best" departSpeed="max" from="-689273330#6" to="36143883#6"/>
    <trip id="veh176" type="veh_passenger" depart="239.75" departLane="best" from="747810937#0" to="-738263287#1"/>
    <trip id="veh177" type="veh_passenger" depart="241.11" departLane="best" departSpeed="max" from="747414863#0" to="632177272"/>
    <trip id="veh178" type="veh_passenger" depart="242.47" departLane="best" departSpeed="max" from="-745343948" to="-556043938#10"/>
    <trip id="veh179" type="veh_passenger" depart="243.83" departLane="best" from="1174717058#1" to="-747810939#1"/>
    <trip id="veh180" type="veh_passenger" depart="245.20" departLane="best" from="-749251100#5" to="563988065#4"/>
    <trip id="veh181" type="veh_passenger" depart="246.56" departLane="best" departSpeed="max" from="-749379464" to="-745343904"/>
    <trip id="veh182" type="veh_passenger" depart="247.92" departLane="best" from="178176467#1" to="747414896"/>
    <trip id="veh183" type="veh_passenger" depart="249.28" departLane="best" from="744349868#0" to="-744568940"/>
    <trip id="veh184" type="veh_passenger" depart="250.65" departLane="best" from="-555228252#12" to="519386894#2"/>
    <trip id="veh185" type="veh_passenger" depart="252.01" departLane="best" from="477751598#0" to="97445628#0"/>
    <trip id="veh186" type="veh_passenger" depart="253.37" departLane="best" departSpeed="max" from="744603805#0" to="744928100"/>
    <trip id="veh187" type="veh_passenger" depart="254.73" departLane="best" from="557409331#1" to="-745343942#1"/>
    <trip id="veh188" type="veh_passenger" depart="256.09" departLane="best" from="744568932#3" to="-34869082#3"/>
    <trip id="veh189" type="veh_passenger" depart="257.46" departLane="best" departSpeed="max" from="-745343843" to="42346782#21"/>
    <trip id="veh190" type="veh_passenger" depart="258.82" departLane="best" from="745343889#0" to="-530283028#1"/>
    <trip id="veh191" type="veh_passenger" depart="260.18" departLane="best" from="749162827" to="684310484"/>
    <trip id="veh192" type="veh_passenger" depart="261.54" departLane="best" from="-744349936" to="742215121"/>
    <trip id="veh193" type="veh_passenger" depart="262.90" departLane="best" from="178293767#7" to="-747345165"/>
    <trip id="veh194" type="veh_passenger" depart="264.27" departLane="best" departSpeed="max" from="554792689#0" to="-177922567#10"/>
    <trip id="veh195" type="veh_passenger" depart="265.63" departLane="best" from="693714211#1" to="745343840"/>
    <trip id="veh196" type="veh_passenger" depart="266.99" departLane="best" departSpeed="max" from="-573301750#2" to="387293217#11"/>
    <trip id="veh197" type="veh_passenger" depart="268.35" departLane="best" from="742215123" to="749251066"/>
    <trip id="veh198" type="veh_passenger" depart="269.72" departLane="best" from="-42346751#8" to="-42346751#8"/>
    <trip id="veh199" type="veh_passenger" depart="271.08" departLane="best" from="1157637408" to="745343906"/>
    <trip id="veh200" type="veh_passenger" depart="272.44" departLane="best" from="556239203#3" to="752927875#1"/>
    <trip id="veh201" type="veh_passenger" depart="273.80" departLane="best" from="42381313#1" to="749162820#0"/>
    <trip id="veh202" type="veh_passenger" depart="275.16" departLane="best" from="-746408053#0" to="614225993#7"/>
    <trip id="veh203" type="veh_passenger" depart="276.53" departLane="best" departSpeed="max" from="614225993#0" to="-477723365#2"/>
    <trip id="veh204" type="veh_passenger" depart="277.89" departLane="best" from="745343832#4" to="556043938#1"/>
    <trip id="veh205" type="veh_passenger" depart="279.25" departLane="best" from="-746997777#2" to="744678303"/>
    <trip id="veh206" type="veh_passenger" depart="280.61" departLane="best" departSpeed="max" from="-747414894#1" to="-747414894#1"/>
    <trip id="veh207" type="veh_passenger" depart="281.98" departLane="best" from="-745343848#1" to="693708494#1"/>
    <trip id="veh208" type="veh_passenger" depart="283.34" departLane="best" from="434702098#41" to="520836735#37"/>
    <trip id="veh209" type="veh_passenger" depart="284.70" departLane="best" from="477727629#7" to="-747810922#1"/>
    <trip id="veh210" type="veh_passenger" depart="286.06" departLane="best" departSpeed="max" from="-551232707#1" to="747810937#2"/>
    <trip id="veh211" type="veh_passenger" depart="287.42" departLane="best" from="745343901#1" to="749251090#0"/>
    <trip id="veh212" type="veh_passenger" depart="288.79" departLane="best" from="36143884#8" to="-693739771#2"/>
    <trip id="veh213" type="veh_passenger" depart="290.15" departLane="best" from="-745343824#9" to="741934666#2"/>
    <trip id="veh214" type="veh_passenger" depart="291.51" departLane="best" from="579791818#1" to="477727629#3"/>
    <trip id="veh215" type="veh_passenger" depart="292.87" departLane="best" departSpeed="max" from="-749162811#1" to="555228252#18"/>
    <trip id="veh216" type="veh_passenger" depart="294.24" departLane="best" departSpeed="max" from="-749210415#1" to="-745343887#0"/>
    <trip id="veh217" type="veh_passenger" depart="295.60" departLane="best" departSpeed="max" from="-749251071" to="747414901"/>
    <trip id="veh218" type="veh_passenger" depart="296.96" departLane="best" from="42343865#2" to="742013805#1"/>
    <trip id="veh219" type="veh_passenger" depart="298.32" departLane="best" departSpeed="max" from="-747414871" to="745237644"/>
    <trip id="veh220" type="veh_passenger" depart="299.68" departLane="best" from="745343898#6" to="749162826"/>
    <trip id="veh221" type="veh_passenger" depart="301.05" departLane="best" departSpeed="max" from="-749251066" to="744928083#7"/>
    <trip id="veh222" type="veh_passenger" depart="302.41" departLane="best" from="387293217#20" to="589675407#9"/>
    <trip id="veh223" type="veh_passenger" depart="303.77" departLane="best" departSpeed="max" from="-744928083#7" to="-745343919#5"/>
    <trip id="veh224" type="veh_passenger" depart="305.13" departLane="best" from="-749251110#6" to="-393914738#5"/>
    <trip id="veh225" type="veh_passenger" depart="306.50" departLane="best" departSpeed="max" from="-746963840" to="-738266719#20"/>
    <trip id="veh226" type="veh_passenger" depart="307.86" departLane="best" from="-749147724#7" to="-744349934"/>
    <trip id="veh227" type="veh_passenger" depart="309.22" departLane="best" from="157600816#1" to="-693708507"/>
    <trip id="veh228" type="veh_passenger" depart="310.58" departLane="best" from="477723364#3" to="-392687095#18"/>
    <trip id="veh229" type="veh_passenger" depart="311.94" departLane="best" departSpeed="max" from="-747861384" to="561030566#16"/>